Building single-core ChampSim...

rm -f -r obj
Generating dependencies for src/block.cc...
Compiling src/block.cc...
Generating dependencies for src/ooo_cpu.cc...
Compiling src/ooo_cpu.cc...
Generating dependencies for src/uncore.cc...
Compiling src/uncore.cc...
Generating dependencies for src/dram_controller.cc...
Compiling src/dram_controller.cc...
Generating dependencies for src/main.cc...
Compiling src/main.cc...
Generating dependencies for src/cache.cc...
Compiling src/cache.cc...
Generating dependencies for branch/branch_predictor.cc...
Compiling branch/branch_predictor.cc...
Generating dependencies for replacement/base_replacement.cc...
Compiling replacement/base_replacement.cc...
Generating dependencies for replacement/llc_replacement.cc...
Compiling replacement/llc_replacement.cc...
Generating dependencies for prefetcher/l1d_prefetcher.cc...
Compiling prefetcher/l1d_prefetcher.cc...
Generating dependencies for prefetcher/l2c_prefetcher.cc...
Compiling prefetcher/l2c_prefetcher.cc...
Generating dependencies for prefetcher/llc_prefetcher.cc...
Compiling prefetcher/llc_prefetcher.cc...
Linking bin/champsim...

[1mChampSim is successfully built
Branch Predictor: perceptron
L1D Prefetcher: no
L2C Prefetcher: no
LLC Prefetcher: no
LLC Replacement: lru
Cores: 1
Binary: bin/perceptron-no-no-no-lru-1core

*************************************************
   ChampSim Multicore Out-of-Order Simulator
   Last compiled: Dec  1 2020 10:24:22
*************************************************
 DRAM access latency: 170
Off-chip DRAM Size: 4096 MB Channels: 1 Width: 64-bit Data Rate: 2400 MT/s
 DRAM_DBUS_RETURN_TIME: 13

trace_0 ./traces/403.gcc-17B.champsimtrace.xz
warmup_instructions 10000000
simulation_instructions 50000000
champsim_seed 170

num_cpus 1
cpu_freq 4000
dram_io_freq 2400
page_size 4096
block_size 64
max_read_per_cycle 20
max_fill_per_cycle 20
dram_channels 1
dram_ranks 1
dram_banks 8
dram_rows 65536
dram_columns 128
dram_row_size 8
dram_size 4096
dram_pages 1048576

fetch_width 20
decode_width 20
exec_width 20
lq_width 20
sq_width 20
retire_width 20
scheduler_size 128
branch_mispredict_penalty 20
rob_size 256
lq_size 72
sq_size 56
num_instr_destinations_sparc 4
num_instr_destinations 2
num_instr_sources 4

itlb_set 16
itlb_way 8
itlb_rq_size 16
itlb_wq_size 16
itlb_pq_size 0
itlb_mshr_size 8
itlb_latency 1

dtlb_set 16
dtlb_way 4
dtlb_rq_size 16
dtlb_wq_size 16
dtlb_pq_size 0
dtlb_mshr_size 8
dtlb_latency 1

stlb_set 128
stlb_way 12
stlb_rq_size 32
stlb_wq_size 32
stlb_pq_size 0
stlb_mshr_size 16
stlb_latency 8

l1i_size 32
l1i_set 64
l1i_way 8
l1i_rq_size 64
l1i_wq_size 64
l1i_pq_size 8
l1i_mshr_size 8
l1i_latency 1

l1d_size 32
l1d_set 64
l1d_way 8
l1d_rq_size 64
l1d_wq_size 64
l1d_pq_size 32
l1d_mshr_size 16
l1d_latency 4

l2c_size 256
l2c_set 512
l2c_way 8
l2c_rq_size 32
l2c_wq_size 32
l2c_pq_size 16
l2c_mshr_size 32
l2c_latency 10

llc_size 2048
llc_set 2048
llc_way 16
llc_rq_size 32
llc_wq_size 32
llc_pq_size 32
llc_mshr_size 64
llc_latency 20

dram_channel_width 8
dram_wq_size 64
dram_rq_size 64
tRP 15
tRCD 15
tCAS 12.5
dram_dbus_turn_around_time 30
dram_write_high_wm 56
dram_write_low_wm 48
min_dram_writes_per_switch 16
dram_mtps 2400
dram_dbus_return_time 13


Heartbeat CPU  0 instructions:    1000002 cycles:     688764 heartbeat IPC: 1.45188 cumulative IPC: 1.45188 (Simulation time: 0 hr 0 min 3 sec) 
Heartbeat CPU  0 instructions:    2000003 cycles:    1321555 heartbeat IPC: 1.58030 cumulative IPC: 1.51337 (Simulation time: 0 hr 0 min 6 sec) 
Heartbeat CPU  0 instructions:    3000013 cycles:    1942804 heartbeat IPC: 1.60968 cumulative IPC: 1.54417 (Simulation time: 0 hr 0 min 9 sec) 
Heartbeat CPU  0 instructions:    4000000 cycles:    2542055 heartbeat IPC: 1.66873 cumulative IPC: 1.57353 (Simulation time: 0 hr 0 min 12 sec) 
Heartbeat CPU  0 instructions:    5000000 cycles:    3138290 heartbeat IPC: 1.67719 cumulative IPC: 1.59322 (Simulation time: 0 hr 0 min 15 sec) 
Heartbeat CPU  0 instructions:    6000004 cycles:    3694439 heartbeat IPC: 1.79809 cumulative IPC: 1.62406 (Simulation time: 0 hr 0 min 18 sec) 
Heartbeat CPU  0 instructions:    7000002 cycles:    4250227 heartbeat IPC: 1.79924 cumulative IPC: 1.64697 (Simulation time: 0 hr 0 min 21 sec) 
Heartbeat CPU  0 instructions:    8000000 cycles:    4810471 heartbeat IPC: 1.78493 cumulative IPC: 1.66304 (Simulation time: 0 hr 0 min 24 sec) 
Heartbeat CPU  0 instructions:    9000000 cycles:    5389006 heartbeat IPC: 1.72850 cumulative IPC: 1.67007 (Simulation time: 0 hr 0 min 28 sec) 
Heartbeat CPU  0 instructions:   10000014 cycles:    6059028 heartbeat IPC: 1.49251 cumulative IPC: 1.65043 (Simulation time: 0 hr 0 min 31 sec) 

Warmup complete CPU  0 instructions:   10000014 cycles:    6059028 (Simulation time: 0 hr 0 min 31 sec) 

Heartbeat CPU  0 instructions:   11000011 cycles:   11010590 heartbeat IPC: 0.20196 cumulative IPC: 0.20196 (Simulation time: 0 hr 0 min 49 sec) 
Heartbeat CPU  0 instructions:   12000000 cycles:   15543804 heartbeat IPC: 0.22059 cumulative IPC: 0.21086 (Simulation time: 0 hr 1 min 4 sec) 
Heartbeat CPU  0 instructions:   13000000 cycles:   19837932 heartbeat IPC: 0.23288 cumulative IPC: 0.21772 (Simulation time: 0 hr 1 min 18 sec) 
Heartbeat CPU  0 instructions:   14000010 cycles:   24183659 heartbeat IPC: 0.23011 cumulative IPC: 0.22069 (Simulation time: 0 hr 1 min 34 sec) 
Heartbeat CPU  0 instructions:   15000003 cycles:   28381738 heartbeat IPC: 0.23820 cumulative IPC: 0.22399 (Simulation time: 0 hr 1 min 49 sec) 
Heartbeat CPU  0 instructions:   16000000 cycles:   32638765 heartbeat IPC: 0.23491 cumulative IPC: 0.22574 (Simulation time: 0 hr 2 min 7 sec) 
Heartbeat CPU  0 instructions:   17000000 cycles:   36695977 heartbeat IPC: 0.24647 cumulative IPC: 0.22848 (Simulation time: 0 hr 2 min 24 sec) 
Heartbeat CPU  0 instructions:   18000015 cycles:   40687388 heartbeat IPC: 0.25054 cumulative IPC: 0.23102 (Simulation time: 0 hr 2 min 43 sec) 
Heartbeat CPU  0 instructions:   19000007 cycles:   44729799 heartbeat IPC: 0.24738 cumulative IPC: 0.23273 (Simulation time: 0 hr 3 min 1 sec) 
Heartbeat CPU  0 instructions:   20000000 cycles:   48619187 heartbeat IPC: 0.25711 cumulative IPC: 0.23496 (Simulation time: 0 hr 3 min 19 sec) 
Heartbeat CPU  0 instructions:   21000003 cycles:   52642978 heartbeat IPC: 0.24852 cumulative IPC: 0.23613 (Simulation time: 0 hr 3 min 38 sec) 
Heartbeat CPU  0 instructions:   22000000 cycles:   56404873 heartbeat IPC: 0.26582 cumulative IPC: 0.23835 (Simulation time: 0 hr 3 min 56 sec) 
Heartbeat CPU  0 instructions:   23000004 cycles:   60186949 heartbeat IPC: 0.26441 cumulative IPC: 0.24017 (Simulation time: 0 hr 4 min 13 sec) 
Heartbeat CPU  0 instructions:   24000000 cycles:   63588857 heartbeat IPC: 0.29395 cumulative IPC: 0.24335 (Simulation time: 0 hr 4 min 29 sec) 
Heartbeat CPU  0 instructions:   25000003 cycles:   66636171 heartbeat IPC: 0.32816 cumulative IPC: 0.24762 (Simulation time: 0 hr 4 min 45 sec) 
Heartbeat CPU  0 instructions:   26000004 cycles:   69520293 heartbeat IPC: 0.34673 cumulative IPC: 0.25212 (Simulation time: 0 hr 5 min 1 sec) 
Heartbeat CPU  0 instructions:   27000000 cycles:   72163795 heartbeat IPC: 0.37828 cumulative IPC: 0.25717 (Simulation time: 0 hr 6 min 52 sec) 
Heartbeat CPU  0 instructions:   28000000 cycles:   77283542 heartbeat IPC: 0.19532 cumulative IPC: 0.25272 (Simulation time: 0 hr 12 min 0 sec) 
Heartbeat CPU  0 instructions:   29000000 cycles:   82403490 heartbeat IPC: 0.19531 cumulative IPC: 0.24887 (Simulation time: 0 hr 17 min 15 sec) 
Heartbeat CPU  0 instructions:   30000000 cycles:   87523482 heartbeat IPC: 0.19531 cumulative IPC: 0.24551 (Simulation time: 0 hr 22 min 25 sec) 
Heartbeat CPU  0 instructions:   31000002 cycles:   92642813 heartbeat IPC: 0.19534 cumulative IPC: 0.24254 (Simulation time: 0 hr 27 min 36 sec) 
Heartbeat CPU  0 instructions:   32000000 cycles:   97762300 heartbeat IPC: 0.19533 cumulative IPC: 0.23990 (Simulation time: 0 hr 32 min 44 sec) 
Heartbeat CPU  0 instructions:   33000000 cycles:  102881734 heartbeat IPC: 0.19533 cumulative IPC: 0.23755 (Simulation time: 0 hr 37 min 51 sec) 
Heartbeat CPU  0 instructions:   34000000 cycles:  108000249 heartbeat IPC: 0.19537 cumulative IPC: 0.23543 (Simulation time: 0 hr 42 min 54 sec) 
Heartbeat CPU  0 instructions:   35000000 cycles:  113119194 heartbeat IPC: 0.19535 cumulative IPC: 0.23351 (Simulation time: 0 hr 48 min 0 sec) 
Heartbeat CPU  0 instructions:   36000000 cycles:  118238264 heartbeat IPC: 0.19535 cumulative IPC: 0.23177 (Simulation time: 0 hr 53 min 0 sec) 
Heartbeat CPU  0 instructions:   37000001 cycles:  123182904 heartbeat IPC: 0.20224 cumulative IPC: 0.23053 (Simulation time: 0 hr 57 min 57 sec) 
Heartbeat CPU  0 instructions:   38000002 cycles:  126395766 heartbeat IPC: 0.31125 cumulative IPC: 0.23268 (Simulation time: 0 hr 58 min 38 sec) 
Heartbeat CPU  0 instructions:   39000013 cycles:  129533545 heartbeat IPC: 0.31870 cumulative IPC: 0.23487 (Simulation time: 0 hr 58 min 56 sec) 
Heartbeat CPU  0 instructions:   40000000 cycles:  132730573 heartbeat IPC: 0.31279 cumulative IPC: 0.23683 (Simulation time: 0 hr 59 min 15 sec) 
Heartbeat CPU  0 instructions:   41000000 cycles:  135800894 heartbeat IPC: 0.32570 cumulative IPC: 0.23894 (Simulation time: 0 hr 59 min 34 sec) 
Heartbeat CPU  0 instructions:   42000008 cycles:  138860163 heartbeat IPC: 0.32688 cumulative IPC: 0.24096 (Simulation time: 0 hr 59 min 53 sec) 
Heartbeat CPU  0 instructions:   43000013 cycles:  141804561 heartbeat IPC: 0.33963 cumulative IPC: 0.24310 (Simulation time: 1 hr 0 min 11 sec) 
Heartbeat CPU  0 instructions:   44000000 cycles:  144764243 heartbeat IPC: 0.33787 cumulative IPC: 0.24512 (Simulation time: 1 hr 0 min 29 sec) 
Heartbeat CPU  0 instructions:   45000009 cycles:  147612204 heartbeat IPC: 0.35113 cumulative IPC: 0.24726 (Simulation time: 1 hr 0 min 47 sec) 
Heartbeat CPU  0 instructions:   46000011 cycles:  150603689 heartbeat IPC: 0.33428 cumulative IPC: 0.24906 (Simulation time: 1 hr 1 min 5 sec) 
Heartbeat CPU  0 instructions:   47000001 cycles:  153570273 heartbeat IPC: 0.33708 cumulative IPC: 0.25083 (Simulation time: 1 hr 1 min 24 sec) 
Heartbeat CPU  0 instructions:   48000000 cycles:  156496920 heartbeat IPC: 0.34169 cumulative IPC: 0.25260 (Simulation time: 1 hr 1 min 42 sec) 
Heartbeat CPU  0 instructions:   49000004 cycles:  159457961 heartbeat IPC: 0.33772 cumulative IPC: 0.25424 (Simulation time: 1 hr 2 min 1 sec) 
Heartbeat CPU  0 instructions:   50000001 cycles:  162421136 heartbeat IPC: 0.33747 cumulative IPC: 0.25582 (Simulation time: 1 hr 2 min 20 sec) 
Heartbeat CPU  0 instructions:   51000000 cycles:  165379168 heartbeat IPC: 0.33806 cumulative IPC: 0.25734 (Simulation time: 1 hr 2 min 38 sec) 
Heartbeat CPU  0 instructions:   52000000 cycles:  168242781 heartbeat IPC: 0.34921 cumulative IPC: 0.25897 (Simulation time: 1 hr 2 min 57 sec) 
Heartbeat CPU  0 instructions:   53000001 cycles:  171250141 heartbeat IPC: 0.33252 cumulative IPC: 0.26030 (Simulation time: 1 hr 3 min 16 sec) 
Heartbeat CPU  0 instructions:   54000001 cycles:  174228404 heartbeat IPC: 0.33577 cumulative IPC: 0.26164 (Simulation time: 1 hr 3 min 36 sec) 
Heartbeat CPU  0 instructions:   55000000 cycles:  177204646 heartbeat IPC: 0.33599 cumulative IPC: 0.26293 (Simulation time: 1 hr 3 min 56 sec) 
Heartbeat CPU  0 instructions:   56000000 cycles:  180157208 heartbeat IPC: 0.33869 cumulative IPC: 0.26422 (Simulation time: 1 hr 4 min 16 sec) 
Heartbeat CPU  0 instructions:   57000002 cycles:  183072499 heartbeat IPC: 0.34302 cumulative IPC: 0.26552 (Simulation time: 1 hr 4 min 36 sec) 
Heartbeat CPU  0 instructions:   58000007 cycles:  186057951 heartbeat IPC: 0.33496 cumulative IPC: 0.26667 (Simulation time: 1 hr 4 min 57 sec) 
Heartbeat CPU  0 instructions:   59000000 cycles:  188926996 heartbeat IPC: 0.34855 cumulative IPC: 0.26795 (Simulation time: 1 hr 5 min 17 sec) 
Heartbeat CPU  0 instructions:   60000000 cycles:  191923440 heartbeat IPC: 0.33373 cumulative IPC: 0.26901 (Simulation time: 1 hr 5 min 38 sec) 
Finished CPU 0 instructions: 50000011 cycles: 185864453 cumulative IPC: 0.26901 (Simulation time: 1 hr 5 min 38 sec) 

ChampSim completed all CPUs

[ROI Statistics]
Core_0_instructions 50000011
Core_0_cycles 185864453
Core_0_IPC 0.26901

Core_0_branch_prediction_accuracy 96.67352
Core_0_branch_MPKI 5.78708
Core_0_average_ROB_occupancy_at_mispredict 116.14444

Core_0_L1D_total_access 13554339
Core_0_L1D_total_hit 12044107
Core_0_L1D_total_miss 1510232
Core_0_L1D_total_overlap_miss 543561
Core_0_L1D_loads 7716476
Core_0_L1D_load_hit 7145844
Core_0_L1D_load_miss 570632
Core_0_L1D_RFOs 5837863
Core_0_L1D_RFO_hit 4898263
Core_0_L1D_RFO_miss 939600
Core_0_L1D_prefetches 0
Core_0_L1D_prefetch_hit 0
Core_0_L1D_prefetch_miss 0
Core_0_L1D_writebacks 0
Core_0_L1D_writeback_hit 0
Core_0_L1D_writeback_miss 0
Core_0_L1D_miss_rate 0.11142
Core_0_L1D_MPKI 30.20464
Core_0_L1D_demand_miss 1510232
Core_0_L1D_prefetch_requested 0
Core_0_L1D_prefetch_issued 0
Core_0_L1D_prefetch_useful 0
Core_0_L1D_prefetch_useless 0
Core_0_L1D_prefetch_late 0
Core_0_L1D_average_miss_latency 600.31177
Core_0_L1D_active_cycles 146386537
Core_0_L1D_active_hit_cycles 40605934
Core_0_L1D_active_miss_cycles 113562856
Core_0_L1D_active_pure_miss_cycles 105780603
Core_0_L1D_active_hit_miss_overlap_cycles 7782253
Core_0_L1D_total_pure_miss 1508858
Core_0_L1D_pure_miss_rate 0.11132
Core_0_L1D_active_cycles_per_core 146386537
Core_0_L1D_active_hit_cycles_per_core 40605934
Core_0_L1D_active_miss_cycles_per_core 113562856
Core_0_L1D_active_pure_miss_cycles_per_core 105780603
Core_0_L1D_hit_miss_overlap_cycles_per_core 7782253
Core_0_L1D_camat_per_core 10.79998

Pure^3_miss 0
Core_0_L1I_total_access 10894214
Core_0_L1I_total_hit 10892475
Core_0_L1I_total_miss 1739
Core_0_L1I_total_overlap_miss 1581
Core_0_L1I_loads 10894214
Core_0_L1I_load_hit 10892475
Core_0_L1I_load_miss 1739
Core_0_L1I_RFOs 0
Core_0_L1I_RFO_hit 0
Core_0_L1I_RFO_miss 0
Core_0_L1I_prefetches 0
Core_0_L1I_prefetch_hit 0
Core_0_L1I_prefetch_miss 0
Core_0_L1I_writebacks 0
Core_0_L1I_writeback_hit 0
Core_0_L1I_writeback_miss 0
Core_0_L1I_miss_rate 0.00016
Core_0_L1I_MPKI 0.03478
Core_0_L1I_demand_miss 1739
Core_0_L1I_prefetch_requested 0
Core_0_L1I_prefetch_issued 0
Core_0_L1I_prefetch_useful 0
Core_0_L1I_prefetch_useless 0
Core_0_L1I_prefetch_late 0
Core_0_L1I_average_miss_latency 87.12536
Core_0_L1I_active_cycles 15581982
Core_0_L1I_active_hit_cycles 15478491
Core_0_L1I_active_miss_cycles 116212
Core_0_L1I_active_pure_miss_cycles 103491
Core_0_L1I_active_hit_miss_overlap_cycles 12721
Core_0_L1I_total_pure_miss 1599
Core_0_L1I_pure_miss_rate 0.00015
Core_0_L1I_active_cycles_per_core 15581982
Core_0_L1I_active_hit_cycles_per_core 15478491
Core_0_L1I_active_miss_cycles_per_core 116212
Core_0_L1I_active_pure_miss_cycles_per_core 103491
Core_0_L1I_hit_miss_overlap_cycles_per_core 12721
Core_0_L1I_camat_per_core 1.43030

Pure^3_miss 0
Core_0_L2C_total_access 2497157
Core_0_L2C_total_hit 1152594
Core_0_L2C_total_miss 1344563
Core_0_L2C_total_overlap_miss 978435
Core_0_L2C_loads 572369
Core_0_L2C_load_hit 165380
Core_0_L2C_load_miss 406989
Core_0_L2C_RFOs 939597
Core_0_L2C_RFO_hit 2371
Core_0_L2C_RFO_miss 937226
Core_0_L2C_prefetches 0
Core_0_L2C_prefetch_hit 0
Core_0_L2C_prefetch_miss 0
Core_0_L2C_writebacks 985191
Core_0_L2C_writeback_hit 984843
Core_0_L2C_writeback_miss 348
Core_0_L2C_miss_rate 0.53844
Core_0_L2C_MPKI 26.89126
Core_0_L2C_demand_miss 1344563
Core_0_L2C_prefetch_requested 0
Core_0_L2C_prefetch_issued 0
Core_0_L2C_prefetch_useful 0
Core_0_L2C_prefetch_useless 0
Core_0_L2C_prefetch_late 0
Core_0_L2C_average_miss_latency 657.46647
Core_0_L2C_active_cycles 109326204
Core_0_L2C_active_hit_cycles 12895187
Core_0_L2C_active_miss_cycles 107729486
Core_0_L2C_active_pure_miss_cycles 96431017
Core_0_L2C_active_hit_miss_overlap_cycles 11298469
Core_0_L2C_total_pure_miss 1344113
Core_0_L2C_pure_miss_rate 0.53826
Core_0_L2C_active_cycles_per_core 109326204
Core_0_L2C_active_hit_cycles_per_core 12895187
Core_0_L2C_active_miss_cycles_per_core 107729486
Core_0_L2C_active_pure_miss_cycles_per_core 96431017
Core_0_L2C_hit_miss_overlap_cycles_per_core 11298469
Core_0_L2C_camat_per_core 43.78027

Pure^3_miss 0
Core_0_LLC_total_access 2319152
Core_0_LLC_total_hit 1041677
Core_0_LLC_total_miss 1277475
Core_0_LLC_total_overlap_miss 943918
Core_0_LLC_loads 406989
Core_0_LLC_load_hit 66528
Core_0_LLC_load_miss 340461
Core_0_LLC_RFOs 937226
Core_0_LLC_RFO_hit 380
Core_0_LLC_RFO_miss 936846
Core_0_LLC_prefetches 0
Core_0_LLC_prefetch_hit 0
Core_0_LLC_prefetch_miss 0
Core_0_LLC_writebacks 974937
Core_0_LLC_writeback_hit 974769
Core_0_LLC_writeback_miss 168
Core_0_LLC_miss_rate 0.55084
Core_0_LLC_MPKI 25.54950
Core_0_LLC_demand_miss 1277475
Core_0_LLC_prefetch_requested 0
Core_0_LLC_prefetch_issued 0
Core_0_LLC_prefetch_useful 0
Core_0_LLC_prefetch_useless 0
Core_0_LLC_prefetch_late 0
Core_0_LLC_average_miss_latency 657.76396
Core_0_LLC_active_cycles 99746455
Core_0_LLC_active_hit_cycles 14336544
Core_0_LLC_active_miss_cycles 98097343
Core_0_LLC_active_pure_miss_cycles 85409911
Core_0_LLC_active_hit_miss_overlap_cycles 12687432
Core_0_LLC_total_pure_miss 1257341
Core_0_LLC_pure_miss_rate 0.54216
Core_0_LLC_active_cycles_per_core 99746455
Core_0_LLC_active_hit_cycles_per_core 14336544
Core_0_LLC_active_miss_cycles_per_core 98097343
Core_0_LLC_active_pure_miss_cycles_per_core 85409911
Core_0_LLC_hit_miss_overlap_cycles_per_core 12687432
Core_0_LLC_camat_per_core 43.00988

Pure^3_miss 1257341
Core_0_major_page_fault 0
Core_0_minor_page_fault 25218

Channel_0_RQ_row_buffer_hit 326946
Channel_0_RQ_row_buffer_miss 950361
Channel_0_WQ_row_buffer_hit 197284
Channel_0_WQ_row_buffer_miss 767922
Channel_0_WQ_full 0
Channel_0_dbus_congested 1780228

avg_congested_cycle 11
*************************************************
   ChampSim Multicore Out-of-Order Simulator
   Last compiled: Dec  1 2020 10:24:22
*************************************************
 DRAM access latency: 170
Off-chip DRAM Size: 4096 MB Channels: 1 Width: 64-bit Data Rate: 2400 MT/s
 DRAM_DBUS_RETURN_TIME: 13

trace_0 ./traces/429.mcf-22B.champsimtrace.xz
warmup_instructions 10000000
simulation_instructions 50000000
champsim_seed 166

num_cpus 1
cpu_freq 4000
dram_io_freq 2400
page_size 4096
block_size 64
max_read_per_cycle 20
max_fill_per_cycle 20
dram_channels 1
dram_ranks 1
dram_banks 8
dram_rows 65536
dram_columns 128
dram_row_size 8
dram_size 4096
dram_pages 1048576

fetch_width 20
decode_width 20
exec_width 20
lq_width 20
sq_width 20
retire_width 20
scheduler_size 128
branch_mispredict_penalty 20
rob_size 256
lq_size 72
sq_size 56
num_instr_destinations_sparc 4
num_instr_destinations 2
num_instr_sources 4

itlb_set 16
itlb_way 8
itlb_rq_size 16
itlb_wq_size 16
itlb_pq_size 0
itlb_mshr_size 8
itlb_latency 1

dtlb_set 16
dtlb_way 4
dtlb_rq_size 16
dtlb_wq_size 16
dtlb_pq_size 0
dtlb_mshr_size 8
dtlb_latency 1

stlb_set 128
stlb_way 12
stlb_rq_size 32
stlb_wq_size 32
stlb_pq_size 0
stlb_mshr_size 16
stlb_latency 8

l1i_size 32
l1i_set 64
l1i_way 8
l1i_rq_size 64
l1i_wq_size 64
l1i_pq_size 8
l1i_mshr_size 8
l1i_latency 1

l1d_size 32
l1d_set 64
l1d_way 8
l1d_rq_size 64
l1d_wq_size 64
l1d_pq_size 32
l1d_mshr_size 16
l1d_latency 4

l2c_size 256
l2c_set 512
l2c_way 8
l2c_rq_size 32
l2c_wq_size 32
l2c_pq_size 16
l2c_mshr_size 32
l2c_latency 10

llc_size 2048
llc_set 2048
llc_way 16
llc_rq_size 32
llc_wq_size 32
llc_pq_size 32
llc_mshr_size 64
llc_latency 20

dram_channel_width 8
dram_wq_size 64
dram_rq_size 64
tRP 15
tRCD 15
tCAS 12.5
dram_dbus_turn_around_time 30
dram_write_high_wm 56
dram_write_low_wm 48
min_dram_writes_per_switch 16
dram_mtps 2400
dram_dbus_return_time 13


Heartbeat CPU  0 instructions:    1000008 cycles:     302290 heartbeat IPC: 3.30811 cumulative IPC: 3.30811 (Simulation time: 0 hr 0 min 2 sec) 
Heartbeat CPU  0 instructions:    2000018 cycles:     548596 heartbeat IPC: 4.06003 cumulative IPC: 3.64570 (Simulation time: 0 hr 0 min 5 sec) 
Heartbeat CPU  0 instructions:    3000003 cycles:     781575 heartbeat IPC: 4.29217 cumulative IPC: 3.83841 (Simulation time: 0 hr 0 min 8 sec) 
Heartbeat CPU  0 instructions:    4000000 cycles:    1058326 heartbeat IPC: 3.61335 cumulative IPC: 3.77955 (Simulation time: 0 hr 0 min 11 sec) 
Heartbeat CPU  0 instructions:    5000003 cycles:    1327004 heartbeat IPC: 3.72194 cumulative IPC: 3.76789 (Simulation time: 0 hr 0 min 14 sec) 
Heartbeat CPU  0 instructions:    6000017 cycles:    1603675 heartbeat IPC: 3.61445 cumulative IPC: 3.74142 (Simulation time: 0 hr 0 min 17 sec) 
Heartbeat CPU  0 instructions:    7000019 cycles:    1837118 heartbeat IPC: 4.28371 cumulative IPC: 3.81033 (Simulation time: 0 hr 0 min 19 sec) 
Heartbeat CPU  0 instructions:    8000000 cycles:    2063482 heartbeat IPC: 4.41758 cumulative IPC: 3.87694 (Simulation time: 0 hr 0 min 22 sec) 
Heartbeat CPU  0 instructions:    9000003 cycles:    2288261 heartbeat IPC: 4.44883 cumulative IPC: 3.93312 (Simulation time: 0 hr 0 min 25 sec) 
Heartbeat CPU  0 instructions:   10000012 cycles:    2513987 heartbeat IPC: 4.43019 cumulative IPC: 3.97775 (Simulation time: 0 hr 0 min 28 sec) 

Warmup complete CPU  0 instructions:   10000012 cycles:    2513987 (Simulation time: 0 hr 0 min 28 sec) 

Heartbeat CPU  0 instructions:   11000004 cycles:    5612163 heartbeat IPC: 0.32277 cumulative IPC: 0.32277 (Simulation time: 0 hr 0 min 54 sec) 
Heartbeat CPU  0 instructions:   12000000 cycles:   19488375 heartbeat IPC: 0.07207 cumulative IPC: 0.11782 (Simulation time: 0 hr 2 min 18 sec) 
Heartbeat CPU  0 instructions:   13000003 cycles:   22291476 heartbeat IPC: 0.35675 cumulative IPC: 0.15169 (Simulation time: 0 hr 2 min 48 sec) 
Heartbeat CPU  0 instructions:   14000000 cycles:   24222122 heartbeat IPC: 0.51796 cumulative IPC: 0.18426 (Simulation time: 0 hr 3 min 6 sec) 
Heartbeat CPU  0 instructions:   15000001 cycles:   26344753 heartbeat IPC: 0.47111 cumulative IPC: 0.20981 (Simulation time: 0 hr 3 min 31 sec) 
Heartbeat CPU  0 instructions:   16000000 cycles:   28802560 heartbeat IPC: 0.40687 cumulative IPC: 0.22824 (Simulation time: 0 hr 4 min 4 sec) 
Heartbeat CPU  0 instructions:   17000001 cycles:   31253292 heartbeat IPC: 0.40804 cumulative IPC: 0.24357 (Simulation time: 0 hr 4 min 37 sec) 
Heartbeat CPU  0 instructions:   18000000 cycles:   33719780 heartbeat IPC: 0.40543 cumulative IPC: 0.25636 (Simulation time: 0 hr 5 min 12 sec) 
Heartbeat CPU  0 instructions:   19000017 cycles:   36739900 heartbeat IPC: 0.33112 cumulative IPC: 0.26296 (Simulation time: 0 hr 5 min 50 sec) 
Heartbeat CPU  0 instructions:   20000000 cycles:   45217690 heartbeat IPC: 0.11795 cumulative IPC: 0.23417 (Simulation time: 0 hr 7 min 17 sec) 
Heartbeat CPU  0 instructions:   21000007 cycles:   47627407 heartbeat IPC: 0.41499 cumulative IPC: 0.24383 (Simulation time: 0 hr 7 min 50 sec) 
Heartbeat CPU  0 instructions:   22000004 cycles:   49604398 heartbeat IPC: 0.50582 cumulative IPC: 0.25483 (Simulation time: 0 hr 8 min 16 sec) 
Heartbeat CPU  0 instructions:   23000011 cycles:   51107790 heartbeat IPC: 0.66517 cumulative IPC: 0.26752 (Simulation time: 0 hr 8 min 33 sec) 
Heartbeat CPU  0 instructions:   24000000 cycles:   53304821 heartbeat IPC: 0.45515 cumulative IPC: 0.27564 (Simulation time: 0 hr 9 min 3 sec) 
Heartbeat CPU  0 instructions:   25000001 cycles:   55744426 heartbeat IPC: 0.40990 cumulative IPC: 0.28179 (Simulation time: 0 hr 9 min 38 sec) 
Heartbeat CPU  0 instructions:   26000002 cycles:   58202180 heartbeat IPC: 0.40688 cumulative IPC: 0.28731 (Simulation time: 0 hr 10 min 14 sec) 
Heartbeat CPU  0 instructions:   27000014 cycles:   59916489 heartbeat IPC: 0.58333 cumulative IPC: 0.29615 (Simulation time: 0 hr 10 min 36 sec) 
Heartbeat CPU  0 instructions:   28000000 cycles:   61399704 heartbeat IPC: 0.67420 cumulative IPC: 0.30568 (Simulation time: 0 hr 10 min 51 sec) 
Heartbeat CPU  0 instructions:   29000013 cycles:   63651137 heartbeat IPC: 0.44417 cumulative IPC: 0.31078 (Simulation time: 0 hr 11 min 16 sec) 
Heartbeat CPU  0 instructions:   30000009 cycles:   66877329 heartbeat IPC: 0.30996 cumulative IPC: 0.31074 (Simulation time: 0 hr 11 min 54 sec) 
Heartbeat CPU  0 instructions:   31000007 cycles:   69416683 heartbeat IPC: 0.39380 cumulative IPC: 0.31389 (Simulation time: 0 hr 12 min 29 sec) 
Heartbeat CPU  0 instructions:   32000000 cycles:   71961259 heartbeat IPC: 0.39299 cumulative IPC: 0.31679 (Simulation time: 0 hr 13 min 6 sec) 
Heartbeat CPU  0 instructions:   33000008 cycles:   74301541 heartbeat IPC: 0.42730 cumulative IPC: 0.32039 (Simulation time: 0 hr 13 min 41 sec) 
Heartbeat CPU  0 instructions:   34000006 cycles:   76257616 heartbeat IPC: 0.51123 cumulative IPC: 0.32545 (Simulation time: 0 hr 14 min 7 sec) 
Heartbeat CPU  0 instructions:   35000004 cycles:   77715178 heartbeat IPC: 0.68608 cumulative IPC: 0.33244 (Simulation time: 0 hr 14 min 23 sec) 
Heartbeat CPU  0 instructions:   36000000 cycles:   79137874 heartbeat IPC: 0.70289 cumulative IPC: 0.33932 (Simulation time: 0 hr 14 min 39 sec) 
Heartbeat CPU  0 instructions:   37000002 cycles:   81196128 heartbeat IPC: 0.48585 cumulative IPC: 0.34315 (Simulation time: 0 hr 15 min 7 sec) 
Heartbeat CPU  0 instructions:   38000015 cycles:   83853609 heartbeat IPC: 0.37630 cumulative IPC: 0.34424 (Simulation time: 0 hr 15 min 43 sec) 
Heartbeat CPU  0 instructions:   39000013 cycles:   87215624 heartbeat IPC: 0.29744 cumulative IPC: 0.34238 (Simulation time: 0 hr 16 min 25 sec) 
Heartbeat CPU  0 instructions:   40000000 cycles:   89511790 heartbeat IPC: 0.43550 cumulative IPC: 0.34484 (Simulation time: 0 hr 16 min 59 sec) 
Heartbeat CPU  0 instructions:   41000002 cycles:   91797785 heartbeat IPC: 0.43745 cumulative IPC: 0.34721 (Simulation time: 0 hr 17 min 32 sec) 
Heartbeat CPU  0 instructions:   42000010 cycles:   94060243 heartbeat IPC: 0.44200 cumulative IPC: 0.34955 (Simulation time: 0 hr 18 min 6 sec) 
Heartbeat CPU  0 instructions:   43000005 cycles:   96451954 heartbeat IPC: 0.41811 cumulative IPC: 0.35130 (Simulation time: 0 hr 18 min 43 sec) 
Heartbeat CPU  0 instructions:   44000000 cycles:   99322779 heartbeat IPC: 0.34833 cumulative IPC: 0.35121 (Simulation time: 0 hr 19 min 27 sec) 
Heartbeat CPU  0 instructions:   45000006 cycles:  102516023 heartbeat IPC: 0.31316 cumulative IPC: 0.34999 (Simulation time: 0 hr 20 min 18 sec) 
Heartbeat CPU  0 instructions:   46000011 cycles:  105742740 heartbeat IPC: 0.30991 cumulative IPC: 0.34874 (Simulation time: 0 hr 21 min 11 sec) 
Heartbeat CPU  0 instructions:   47000000 cycles:  108922029 heartbeat IPC: 0.31453 cumulative IPC: 0.34772 (Simulation time: 0 hr 22 min 2 sec) 
Heartbeat CPU  0 instructions:   48000000 cycles:  112615492 heartbeat IPC: 0.27075 cumulative IPC: 0.34514 (Simulation time: 0 hr 23 min 0 sec) 
Heartbeat CPU  0 instructions:   49000010 cycles:  117426673 heartbeat IPC: 0.20785 cumulative IPC: 0.33939 (Simulation time: 0 hr 24 min 6 sec) 
Heartbeat CPU  0 instructions:   50000001 cycles:  120349120 heartbeat IPC: 0.34218 cumulative IPC: 0.33946 (Simulation time: 0 hr 24 min 36 sec) 
Heartbeat CPU  0 instructions:   51000014 cycles:  124234883 heartbeat IPC: 0.25735 cumulative IPC: 0.33684 (Simulation time: 0 hr 25 min 26 sec) 
Heartbeat CPU  0 instructions:   52000000 cycles:  127433655 heartbeat IPC: 0.31262 cumulative IPC: 0.33622 (Simulation time: 0 hr 26 min 10 sec) 
Heartbeat CPU  0 instructions:   53000001 cycles:  129760114 heartbeat IPC: 0.42984 cumulative IPC: 0.33793 (Simulation time: 0 hr 26 min 36 sec) 
Heartbeat CPU  0 instructions:   54000008 cycles:  133003916 heartbeat IPC: 0.30828 cumulative IPC: 0.33719 (Simulation time: 0 hr 27 min 6 sec) 
Heartbeat CPU  0 instructions:   55000003 cycles:  135648149 heartbeat IPC: 0.37818 cumulative IPC: 0.33800 (Simulation time: 0 hr 27 min 32 sec) 
Heartbeat CPU  0 instructions:   56000000 cycles:  137946131 heartbeat IPC: 0.43516 cumulative IPC: 0.33965 (Simulation time: 0 hr 27 min 58 sec) 
Heartbeat CPU  0 instructions:   57000000 cycles:  139699011 heartbeat IPC: 0.57049 cumulative IPC: 0.34260 (Simulation time: 0 hr 28 min 18 sec) 
Heartbeat CPU  0 instructions:   58000007 cycles:  143732281 heartbeat IPC: 0.24794 cumulative IPC: 0.33990 (Simulation time: 0 hr 29 min 17 sec) 
Heartbeat CPU  0 instructions:   59000002 cycles:  153998091 heartbeat IPC: 0.09741 cumulative IPC: 0.32347 (Simulation time: 0 hr 31 min 4 sec) 
Heartbeat CPU  0 instructions:   60000000 cycles:  158043445 heartbeat IPC: 0.24720 cumulative IPC: 0.32148 (Simulation time: 0 hr 31 min 58 sec) 
Finished CPU 0 instructions: 50000010 cycles: 155529709 cumulative IPC: 0.32148 (Simulation time: 0 hr 31 min 58 sec) 

ChampSim completed all CPUs

[ROI Statistics]
Core_0_instructions 50000010
Core_0_cycles 155529709
Core_0_IPC 0.32148

Core_0_branch_prediction_accuracy 97.84119
Core_0_branch_MPKI 1.85394
Core_0_average_ROB_occupancy_at_mispredict 153.87428

Core_0_L1D_total_access 16936090
Core_0_L1D_total_hit 15559329
Core_0_L1D_total_miss 1376761
Core_0_L1D_total_overlap_miss 1058295
Core_0_L1D_loads 5871161
Core_0_L1D_load_hit 4494615
Core_0_L1D_load_miss 1376546
Core_0_L1D_RFOs 11064929
Core_0_L1D_RFO_hit 11064714
Core_0_L1D_RFO_miss 215
Core_0_L1D_prefetches 0
Core_0_L1D_prefetch_hit 0
Core_0_L1D_prefetch_miss 0
Core_0_L1D_writebacks 0
Core_0_L1D_writeback_hit 0
Core_0_L1D_writeback_miss 0
Core_0_L1D_miss_rate 0.08129
Core_0_L1D_MPKI 27.53522
Core_0_L1D_demand_miss 1376761
Core_0_L1D_prefetch_requested 0
Core_0_L1D_prefetch_issued 0
Core_0_L1D_prefetch_useful 0
Core_0_L1D_prefetch_useless 0
Core_0_L1D_prefetch_late 0
Core_0_L1D_average_miss_latency 248.05450
Core_0_L1D_active_cycles 144475277
Core_0_L1D_active_hit_cycles 24738732
Core_0_L1D_active_miss_cycles 129135713
Core_0_L1D_active_pure_miss_cycles 119736545
Core_0_L1D_active_hit_miss_overlap_cycles 9399168
Core_0_L1D_total_pure_miss 1368443
Core_0_L1D_pure_miss_rate 0.08080
Core_0_L1D_active_cycles_per_core 144475277
Core_0_L1D_active_hit_cycles_per_core 24738732
Core_0_L1D_active_miss_cycles_per_core 129135713
Core_0_L1D_active_pure_miss_cycles_per_core 119736545
Core_0_L1D_hit_miss_overlap_cycles_per_core 9399168
Core_0_L1D_camat_per_core 8.53062

Pure^3_miss 0
Core_0_L1I_total_access 9270956
Core_0_L1I_total_hit 9270956
Core_0_L1I_total_miss 0
Core_0_L1I_total_overlap_miss 0
Core_0_L1I_loads 9270956
Core_0_L1I_load_hit 9270956
Core_0_L1I_load_miss 0
Core_0_L1I_RFOs 0
Core_0_L1I_RFO_hit 0
Core_0_L1I_RFO_miss 0
Core_0_L1I_prefetches 0
Core_0_L1I_prefetch_hit 0
Core_0_L1I_prefetch_miss 0
Core_0_L1I_writebacks 0
Core_0_L1I_writeback_hit 0
Core_0_L1I_writeback_miss 0
Core_0_L1I_miss_rate 0.00000
Core_0_L1I_MPKI 0.00000
Core_0_L1I_demand_miss 0
Core_0_L1I_prefetch_requested 0
Core_0_L1I_prefetch_issued 0
Core_0_L1I_prefetch_useful 0
Core_0_L1I_prefetch_useless 0
Core_0_L1I_prefetch_late 0
Core_0_L1I_average_miss_latency -nan
Core_0_L1I_active_cycles 9648362
Core_0_L1I_active_hit_cycles 9648362
Core_0_L1I_active_miss_cycles 0
Core_0_L1I_active_pure_miss_cycles 0
Core_0_L1I_active_hit_miss_overlap_cycles 0
Core_0_L1I_total_pure_miss 0
Core_0_L1I_pure_miss_rate 0.00000
Core_0_L1I_active_cycles_per_core 9648362
Core_0_L1I_active_hit_cycles_per_core 9648362
Core_0_L1I_active_miss_cycles_per_core 0
Core_0_L1I_active_pure_miss_cycles_per_core 0
Core_0_L1I_hit_miss_overlap_cycles_per_core 0
Core_0_L1I_camat_per_core 1.04071

Pure^3_miss 0
Core_0_L2C_total_access 2074500
Core_0_L2C_total_hit 733794
Core_0_L2C_total_miss 1340706
Core_0_L2C_total_overlap_miss 609093
Core_0_L2C_loads 1376363
Core_0_L2C_load_hit 37406
Core_0_L2C_load_miss 1338957
Core_0_L2C_RFOs 215
Core_0_L2C_RFO_hit 191
Core_0_L2C_RFO_miss 24
Core_0_L2C_prefetches 0
Core_0_L2C_prefetch_hit 0
Core_0_L2C_prefetch_miss 0
Core_0_L2C_writebacks 697922
Core_0_L2C_writeback_hit 696197
Core_0_L2C_writeback_miss 1725
Core_0_L2C_miss_rate 0.64628
Core_0_L2C_MPKI 26.81412
Core_0_L2C_demand_miss 1340706
Core_0_L2C_prefetch_requested 0
Core_0_L2C_prefetch_issued 0
Core_0_L2C_prefetch_useful 0
Core_0_L2C_prefetch_useless 0
Core_0_L2C_prefetch_late 0
Core_0_L2C_average_miss_latency 229.26867
Core_0_L2C_active_cycles 124604436
Core_0_L2C_active_hit_cycles 8664230
Core_0_L2C_active_miss_cycles 121732577
Core_0_L2C_active_pure_miss_cycles 115940206
Core_0_L2C_active_hit_miss_overlap_cycles 5792371
Core_0_L2C_total_pure_miss 1338506
Core_0_L2C_pure_miss_rate 0.64522
Core_0_L2C_active_cycles_per_core 124604436
Core_0_L2C_active_hit_cycles_per_core 8664230
Core_0_L2C_active_miss_cycles_per_core 121732577
Core_0_L2C_active_pure_miss_cycles_per_core 115940206
Core_0_L2C_hit_miss_overlap_cycles_per_core 5792371
Core_0_L2C_camat_per_core 60.06480

Pure^3_miss 0
Core_0_LLC_total_access 2009175
Core_0_LLC_total_hit 695242
Core_0_LLC_total_miss 1313933
Core_0_LLC_total_overlap_miss 524056
Core_0_LLC_loads 1338958
Core_0_LLC_load_hit 25343
Core_0_LLC_load_miss 1313615
Core_0_LLC_RFOs 24
Core_0_LLC_RFO_hit 11
Core_0_LLC_RFO_miss 13
Core_0_LLC_prefetches 0
Core_0_LLC_prefetch_hit 0
Core_0_LLC_prefetch_miss 0
Core_0_LLC_writebacks 670193
Core_0_LLC_writeback_hit 669888
Core_0_LLC_writeback_miss 305
Core_0_LLC_miss_rate 0.65397
Core_0_LLC_MPKI 26.27866
Core_0_LLC_demand_miss 1313933
Core_0_LLC_prefetch_requested 0
Core_0_LLC_prefetch_issued 0
Core_0_LLC_prefetch_useful 0
Core_0_LLC_prefetch_useless 0
Core_0_LLC_prefetch_late 0
Core_0_LLC_average_miss_latency 198.86930
Core_0_LLC_active_cycles 114236615
Core_0_LLC_active_hit_cycles 12265034
Core_0_LLC_active_miss_cycles 108649667
Core_0_LLC_active_pure_miss_cycles 101971581
Core_0_LLC_active_hit_miss_overlap_cycles 6678086
Core_0_LLC_total_pure_miss 1313616
Core_0_LLC_pure_miss_rate 0.65381
Core_0_LLC_active_cycles_per_core 114236615
Core_0_LLC_active_hit_cycles_per_core 12265034
Core_0_LLC_active_miss_cycles_per_core 108649667
Core_0_LLC_active_pure_miss_cycles_per_core 101971581
Core_0_LLC_hit_miss_overlap_cycles_per_core 6678086
Core_0_LLC_camat_per_core 56.85747

Pure^3_miss 1313615
Core_0_major_page_fault 0
Core_0_minor_page_fault 124290

Channel_0_RQ_row_buffer_hit 209633
Channel_0_RQ_row_buffer_miss 1103978
Channel_0_WQ_row_buffer_hit 196651
Channel_0_WQ_row_buffer_miss 457526
Channel_0_WQ_full 0
Channel_0_dbus_congested 873116

avg_congested_cycle 11
*************************************************
   ChampSim Multicore Out-of-Order Simulator
   Last compiled: Dec  1 2020 10:24:22
*************************************************
 DRAM access latency: 170
Off-chip DRAM Size: 4096 MB Channels: 1 Width: 64-bit Data Rate: 2400 MT/s
 DRAM_DBUS_RETURN_TIME: 13

trace_0 ./traces/436.cactusADM-1804B.champsimtrace.xz
warmup_instructions 10000000
simulation_instructions 50000000
champsim_seed 271

num_cpus 1
cpu_freq 4000
dram_io_freq 2400
page_size 4096
block_size 64
max_read_per_cycle 20
max_fill_per_cycle 20
dram_channels 1
dram_ranks 1
dram_banks 8
dram_rows 65536
dram_columns 128
dram_row_size 8
dram_size 4096
dram_pages 1048576

fetch_width 20
decode_width 20
exec_width 20
lq_width 20
sq_width 20
retire_width 20
scheduler_size 128
branch_mispredict_penalty 20
rob_size 256
lq_size 72
sq_size 56
num_instr_destinations_sparc 4
num_instr_destinations 2
num_instr_sources 4

itlb_set 16
itlb_way 8
itlb_rq_size 16
itlb_wq_size 16
itlb_pq_size 0
itlb_mshr_size 8
itlb_latency 1

dtlb_set 16
dtlb_way 4
dtlb_rq_size 16
dtlb_wq_size 16
dtlb_pq_size 0
dtlb_mshr_size 8
dtlb_latency 1

stlb_set 128
stlb_way 12
stlb_rq_size 32
stlb_wq_size 32
stlb_pq_size 0
stlb_mshr_size 16
stlb_latency 8

l1i_size 32
l1i_set 64
l1i_way 8
l1i_rq_size 64
l1i_wq_size 64
l1i_pq_size 8
l1i_mshr_size 8
l1i_latency 1

l1d_size 32
l1d_set 64
l1d_way 8
l1d_rq_size 64
l1d_wq_size 64
l1d_pq_size 32
l1d_mshr_size 16
l1d_latency 4

l2c_size 256
l2c_set 512
l2c_way 8
l2c_rq_size 32
l2c_wq_size 32
l2c_pq_size 16
l2c_mshr_size 32
l2c_latency 10

llc_size 2048
llc_set 2048
llc_way 16
llc_rq_size 32
llc_wq_size 32
llc_pq_size 32
llc_mshr_size 64
llc_latency 20

dram_channel_width 8
dram_wq_size 64
dram_rq_size 64
tRP 15
tRCD 15
tCAS 12.5
dram_dbus_turn_around_time 30
dram_write_high_wm 56
dram_write_low_wm 48
min_dram_writes_per_switch 16
dram_mtps 2400
dram_dbus_return_time 13


Heartbeat CPU  0 instructions:    1000000 cycles:     443839 heartbeat IPC: 2.25307 cumulative IPC: 2.25307 (Simulation time: 0 hr 0 min 5 sec) 
Heartbeat CPU  0 instructions:    2000003 cycles:     887659 heartbeat IPC: 2.25317 cumulative IPC: 2.25312 (Simulation time: 0 hr 0 min 10 sec) 
Heartbeat CPU  0 instructions:    3000001 cycles:    1331412 heartbeat IPC: 2.25350 cumulative IPC: 2.25325 (Simulation time: 0 hr 0 min 15 sec) 
Heartbeat CPU  0 instructions:    4000000 cycles:    1774835 heartbeat IPC: 2.25518 cumulative IPC: 2.25373 (Simulation time: 0 hr 0 min 21 sec) 
Heartbeat CPU  0 instructions:    5000000 cycles:    2218476 heartbeat IPC: 2.25407 cumulative IPC: 2.25380 (Simulation time: 0 hr 0 min 26 sec) 
Heartbeat CPU  0 instructions:    6000002 cycles:    2662150 heartbeat IPC: 2.25391 cumulative IPC: 2.25382 (Simulation time: 0 hr 0 min 32 sec) 
Heartbeat CPU  0 instructions:    7000012 cycles:    3105909 heartbeat IPC: 2.25350 cumulative IPC: 2.25377 (Simulation time: 0 hr 0 min 38 sec) 
Heartbeat CPU  0 instructions:    8000000 cycles:    3549382 heartbeat IPC: 2.25490 cumulative IPC: 2.25391 (Simulation time: 0 hr 0 min 44 sec) 
Heartbeat CPU  0 instructions:    9000002 cycles:    3992896 heartbeat IPC: 2.25472 cumulative IPC: 2.25400 (Simulation time: 0 hr 0 min 49 sec) 
Heartbeat CPU  0 instructions:   10000005 cycles:    4436322 heartbeat IPC: 2.25517 cumulative IPC: 2.25412 (Simulation time: 0 hr 0 min 54 sec) 

Warmup complete CPU  0 instructions:   10000005 cycles:    4436322 (Simulation time: 0 hr 0 min 54 sec) 

Heartbeat CPU  0 instructions:   11000002 cycles:    6467427 heartbeat IPC: 0.49234 cumulative IPC: 0.49234 (Simulation time: 0 hr 1 min 21 sec) 
Heartbeat CPU  0 instructions:   12000000 cycles:    8388122 heartbeat IPC: 0.52064 cumulative IPC: 0.50610 (Simulation time: 0 hr 1 min 40 sec) 
Heartbeat CPU  0 instructions:   13000000 cycles:   10458268 heartbeat IPC: 0.48306 cumulative IPC: 0.49818 (Simulation time: 0 hr 2 min 4 sec) 
Heartbeat CPU  0 instructions:   14000012 cycles:   12546446 heartbeat IPC: 0.47889 cumulative IPC: 0.49321 (Simulation time: 0 hr 2 min 29 sec) 
Heartbeat CPU  0 instructions:   15000010 cycles:   14473752 heartbeat IPC: 0.51886 cumulative IPC: 0.49814 (Simulation time: 0 hr 2 min 51 sec) 
Heartbeat CPU  0 instructions:   16000000 cycles:   16481665 heartbeat IPC: 0.49802 cumulative IPC: 0.49812 (Simulation time: 0 hr 3 min 15 sec) 
Heartbeat CPU  0 instructions:   17000001 cycles:   18585472 heartbeat IPC: 0.47533 cumulative IPC: 0.49473 (Simulation time: 0 hr 3 min 43 sec) 
Heartbeat CPU  0 instructions:   18000008 cycles:   25701538 heartbeat IPC: 0.14053 cumulative IPC: 0.37620 (Simulation time: 0 hr 4 min 58 sec) 
Heartbeat CPU  0 instructions:   19000000 cycles:   36174423 heartbeat IPC: 0.09548 cumulative IPC: 0.28357 (Simulation time: 0 hr 6 min 56 sec) 
Heartbeat CPU  0 instructions:   20000000 cycles:   38315308 heartbeat IPC: 0.46710 cumulative IPC: 0.29517 (Simulation time: 0 hr 7 min 29 sec) 
Heartbeat CPU  0 instructions:   21000010 cycles:   40394792 heartbeat IPC: 0.48089 cumulative IPC: 0.30591 (Simulation time: 0 hr 8 min 1 sec) 
Heartbeat CPU  0 instructions:   22000009 cycles:   42342048 heartbeat IPC: 0.51354 cumulative IPC: 0.31657 (Simulation time: 0 hr 8 min 29 sec) 
Heartbeat CPU  0 instructions:   23000017 cycles:   44446837 heartbeat IPC: 0.47511 cumulative IPC: 0.32491 (Simulation time: 0 hr 9 min 2 sec) 
Heartbeat CPU  0 instructions:   24000000 cycles:   46545258 heartbeat IPC: 0.47654 cumulative IPC: 0.33247 (Simulation time: 0 hr 9 min 35 sec) 
Heartbeat CPU  0 instructions:   25000006 cycles:   48596498 heartbeat IPC: 0.48751 cumulative IPC: 0.33967 (Simulation time: 0 hr 10 min 5 sec) 
Heartbeat CPU  0 instructions:   26000009 cycles:   50675150 heartbeat IPC: 0.48108 cumulative IPC: 0.34603 (Simulation time: 0 hr 10 min 40 sec) 
Heartbeat CPU  0 instructions:   27000001 cycles:   52783316 heartbeat IPC: 0.47434 cumulative IPC: 0.35162 (Simulation time: 0 hr 11 min 15 sec) 
Heartbeat CPU  0 instructions:   28000000 cycles:   54767447 heartbeat IPC: 0.50400 cumulative IPC: 0.35763 (Simulation time: 0 hr 11 min 49 sec) 
Heartbeat CPU  0 instructions:   29000010 cycles:   56741545 heartbeat IPC: 0.50657 cumulative IPC: 0.36325 (Simulation time: 0 hr 12 min 21 sec) 
Heartbeat CPU  0 instructions:   30000007 cycles:   58810821 heartbeat IPC: 0.48326 cumulative IPC: 0.36782 (Simulation time: 0 hr 12 min 56 sec) 
Heartbeat CPU  0 instructions:   31000003 cycles:   60864526 heartbeat IPC: 0.48692 cumulative IPC: 0.37215 (Simulation time: 0 hr 13 min 29 sec) 
Heartbeat CPU  0 instructions:   32000000 cycles:   62756931 heartbeat IPC: 0.52843 cumulative IPC: 0.37723 (Simulation time: 0 hr 13 min 58 sec) 
Heartbeat CPU  0 instructions:   33000003 cycles:   64825149 heartbeat IPC: 0.48351 cumulative IPC: 0.38087 (Simulation time: 0 hr 14 min 32 sec) 
Heartbeat CPU  0 instructions:   34000005 cycles:   66899248 heartbeat IPC: 0.48214 cumulative IPC: 0.38423 (Simulation time: 0 hr 15 min 6 sec) 
Heartbeat CPU  0 instructions:   35000007 cycles:   68827754 heartbeat IPC: 0.51854 cumulative IPC: 0.38825 (Simulation time: 0 hr 15 min 38 sec) 
Heartbeat CPU  0 instructions:   36000000 cycles:   70865159 heartbeat IPC: 0.49082 cumulative IPC: 0.39140 (Simulation time: 0 hr 16 min 11 sec) 
Heartbeat CPU  0 instructions:   37000019 cycles:   72968894 heartbeat IPC: 0.47535 cumulative IPC: 0.39397 (Simulation time: 0 hr 16 min 46 sec) 
Heartbeat CPU  0 instructions:   38000008 cycles:   74971823 heartbeat IPC: 0.49926 cumulative IPC: 0.39696 (Simulation time: 0 hr 17 min 19 sec) 
Heartbeat CPU  0 instructions:   39000011 cycles:   76909422 heartbeat IPC: 0.51610 cumulative IPC: 0.40015 (Simulation time: 0 hr 17 min 51 sec) 
Heartbeat CPU  0 instructions:   40000000 cycles:   79028805 heartbeat IPC: 0.47183 cumulative IPC: 0.40219 (Simulation time: 0 hr 18 min 26 sec) 
Heartbeat CPU  0 instructions:   41000003 cycles:   93458530 heartbeat IPC: 0.06930 cumulative IPC: 0.34823 (Simulation time: 0 hr 21 min 31 sec) 
Heartbeat CPU  0 instructions:   42000005 cycles:   96926593 heartbeat IPC: 0.28835 cumulative IPC: 0.34598 (Simulation time: 0 hr 22 min 22 sec) 
Heartbeat CPU  0 instructions:   43000009 cycles:   99040411 heartbeat IPC: 0.47308 cumulative IPC: 0.34882 (Simulation time: 0 hr 22 min 58 sec) 
Heartbeat CPU  0 instructions:   44000000 cycles:  101160179 heartbeat IPC: 0.47175 cumulative IPC: 0.35152 (Simulation time: 0 hr 23 min 35 sec) 
Heartbeat CPU  0 instructions:   45000013 cycles:  103124153 heartbeat IPC: 0.50918 cumulative IPC: 0.35465 (Simulation time: 0 hr 24 min 8 sec) 
Heartbeat CPU  0 instructions:   46000001 cycles:  105188420 heartbeat IPC: 0.48443 cumulative IPC: 0.35731 (Simulation time: 0 hr 24 min 43 sec) 
Heartbeat CPU  0 instructions:   47000000 cycles:  107297276 heartbeat IPC: 0.47419 cumulative IPC: 0.35971 (Simulation time: 0 hr 25 min 19 sec) 
Heartbeat CPU  0 instructions:   48000000 cycles:  109338637 heartbeat IPC: 0.48987 cumulative IPC: 0.36224 (Simulation time: 0 hr 25 min 55 sec) 
Heartbeat CPU  0 instructions:   49000000 cycles:  111295972 heartbeat IPC: 0.51090 cumulative IPC: 0.36496 (Simulation time: 0 hr 26 min 28 sec) 
Heartbeat CPU  0 instructions:   50000018 cycles:  113408589 heartbeat IPC: 0.47336 cumulative IPC: 0.36707 (Simulation time: 0 hr 27 min 5 sec) 
Heartbeat CPU  0 instructions:   51000011 cycles:  115513795 heartbeat IPC: 0.47501 cumulative IPC: 0.36911 (Simulation time: 0 hr 27 min 41 sec) 
Heartbeat CPU  0 instructions:   52000000 cycles:  117420755 heartbeat IPC: 0.52439 cumulative IPC: 0.37173 (Simulation time: 0 hr 28 min 13 sec) 
Heartbeat CPU  0 instructions:   53000000 cycles:  119491791 heartbeat IPC: 0.48285 cumulative IPC: 0.37373 (Simulation time: 0 hr 28 min 50 sec) 
Heartbeat CPU  0 instructions:   54000011 cycles:  121585316 heartbeat IPC: 0.47767 cumulative IPC: 0.37559 (Simulation time: 0 hr 29 min 27 sec) 
Heartbeat CPU  0 instructions:   55000009 cycles:  123529364 heartbeat IPC: 0.51439 cumulative IPC: 0.37786 (Simulation time: 0 hr 30 min 0 sec) 
Heartbeat CPU  0 instructions:   56000000 cycles:  125537470 heartbeat IPC: 0.49798 cumulative IPC: 0.37985 (Simulation time: 0 hr 30 min 35 sec) 
Heartbeat CPU  0 instructions:   57000006 cycles:  127630741 heartbeat IPC: 0.47772 cumulative IPC: 0.38151 (Simulation time: 0 hr 31 min 12 sec) 
Heartbeat CPU  0 instructions:   58000013 cycles:  129678323 heartbeat IPC: 0.48838 cumulative IPC: 0.38326 (Simulation time: 0 hr 31 min 48 sec) 
Heartbeat CPU  0 instructions:   59000003 cycles:  131627945 heartbeat IPC: 0.51291 cumulative IPC: 0.38525 (Simulation time: 0 hr 32 min 21 sec) 
Heartbeat CPU  0 instructions:   60000000 cycles:  133724536 heartbeat IPC: 0.47696 cumulative IPC: 0.38673 (Simulation time: 0 hr 32 min 58 sec) 
Finished CPU 0 instructions: 50000000 cycles: 129288243 cumulative IPC: 0.38673 (Simulation time: 0 hr 32 min 58 sec) 

ChampSim completed all CPUs

[ROI Statistics]
Core_0_instructions 50000000
Core_0_cycles 129288243
Core_0_IPC 0.38673

Core_0_branch_prediction_accuracy 99.16455
Core_0_branch_MPKI 0.01028
Core_0_average_ROB_occupancy_at_mispredict 250.45914

Core_0_L1D_total_access 24101168
Core_0_L1D_total_hit 23710498
Core_0_L1D_total_miss 390670
Core_0_L1D_total_overlap_miss 294648
Core_0_L1D_loads 15843381
Core_0_L1D_load_hit 15523386
Core_0_L1D_load_miss 319995
Core_0_L1D_RFOs 8257787
Core_0_L1D_RFO_hit 8187112
Core_0_L1D_RFO_miss 70675
Core_0_L1D_prefetches 0
Core_0_L1D_prefetch_hit 0
Core_0_L1D_prefetch_miss 0
Core_0_L1D_writebacks 0
Core_0_L1D_writeback_hit 0
Core_0_L1D_writeback_miss 0
Core_0_L1D_miss_rate 0.01621
Core_0_L1D_MPKI 7.81340
Core_0_L1D_demand_miss 390670
Core_0_L1D_prefetch_requested 0
Core_0_L1D_prefetch_issued 0
Core_0_L1D_prefetch_useful 0
Core_0_L1D_prefetch_useless 0
Core_0_L1D_prefetch_late 0
Core_0_L1D_average_miss_latency 186.16502
Core_0_L1D_active_cycles 92417124
Core_0_L1D_active_hit_cycles 67139518
Core_0_L1D_active_miss_cycles 38580595
Core_0_L1D_active_pure_miss_cycles 25277606
Core_0_L1D_active_hit_miss_overlap_cycles 13302989
Core_0_L1D_total_pure_miss 323805
Core_0_L1D_pure_miss_rate 0.01344
Core_0_L1D_active_cycles_per_core 92417124
Core_0_L1D_active_hit_cycles_per_core 67139518
Core_0_L1D_active_miss_cycles_per_core 38580595
Core_0_L1D_active_pure_miss_cycles_per_core 25277606
Core_0_L1D_hit_miss_overlap_cycles_per_core 13302989
Core_0_L1D_camat_per_core 3.83455

Pure^3_miss 0
Core_0_L1I_total_access 11351026
Core_0_L1I_total_hit 11350956
Core_0_L1I_total_miss 70
Core_0_L1I_total_overlap_miss 37
Core_0_L1I_loads 11351026
Core_0_L1I_load_hit 11350956
Core_0_L1I_load_miss 70
Core_0_L1I_RFOs 0
Core_0_L1I_RFO_hit 0
Core_0_L1I_RFO_miss 0
Core_0_L1I_prefetches 0
Core_0_L1I_prefetch_hit 0
Core_0_L1I_prefetch_miss 0
Core_0_L1I_writebacks 0
Core_0_L1I_writeback_hit 0
Core_0_L1I_writeback_miss 0
Core_0_L1I_miss_rate 0.00001
Core_0_L1I_MPKI 0.00140
Core_0_L1I_demand_miss 70
Core_0_L1I_prefetch_requested 0
Core_0_L1I_prefetch_issued 0
Core_0_L1I_prefetch_useful 0
Core_0_L1I_prefetch_useless 0
Core_0_L1I_prefetch_late 0
Core_0_L1I_average_miss_latency 239.32857
Core_0_L1I_active_cycles 15713466
Core_0_L1I_active_hit_cycles 15711277
Core_0_L1I_active_miss_cycles 2656
Core_0_L1I_active_pure_miss_cycles 2189
Core_0_L1I_active_hit_miss_overlap_cycles 467
Core_0_L1I_total_pure_miss 70
Core_0_L1I_pure_miss_rate 0.00001
Core_0_L1I_active_cycles_per_core 15713466
Core_0_L1I_active_hit_cycles_per_core 15711277
Core_0_L1I_active_miss_cycles_per_core 2656
Core_0_L1I_active_pure_miss_cycles_per_core 2189
Core_0_L1I_hit_miss_overlap_cycles_per_core 467
Core_0_L1I_camat_per_core 1.38432

Pure^3_miss 0
Core_0_L2C_total_access 464730
Core_0_L2C_total_hit 215131
Core_0_L2C_total_miss 249599
Core_0_L2C_total_overlap_miss 111987
Core_0_L2C_loads 320065
Core_0_L2C_load_hit 141212
Core_0_L2C_load_miss 178853
Core_0_L2C_RFOs 70675
Core_0_L2C_RFO_hit 5
Core_0_L2C_RFO_miss 70670
Core_0_L2C_prefetches 0
Core_0_L2C_prefetch_hit 0
Core_0_L2C_prefetch_miss 0
Core_0_L2C_writebacks 73990
Core_0_L2C_writeback_hit 73914
Core_0_L2C_writeback_miss 76
Core_0_L2C_miss_rate 0.53708
Core_0_L2C_MPKI 4.99198
Core_0_L2C_demand_miss 249599
Core_0_L2C_prefetch_requested 0
Core_0_L2C_prefetch_issued 0
Core_0_L2C_prefetch_useful 0
Core_0_L2C_prefetch_useless 0
Core_0_L2C_prefetch_late 0
Core_0_L2C_average_miss_latency 240.11152
Core_0_L2C_active_cycles 35576868
Core_0_L2C_active_hit_cycles 3664737
Core_0_L2C_active_miss_cycles 33621004
Core_0_L2C_active_pure_miss_cycles 31912131
Core_0_L2C_active_hit_miss_overlap_cycles 1708873
Core_0_L2C_total_pure_miss 249391
Core_0_L2C_pure_miss_rate 0.53664
Core_0_L2C_active_cycles_per_core 35576868
Core_0_L2C_active_hit_cycles_per_core 3664737
Core_0_L2C_active_miss_cycles_per_core 33621004
Core_0_L2C_active_pure_miss_cycles_per_core 31912131
Core_0_L2C_hit_miss_overlap_cycles_per_core 1708873
Core_0_L2C_camat_per_core 76.55384

Pure^3_miss 0
Core_0_LLC_total_access 320237
Core_0_LLC_total_hit 70618
Core_0_LLC_total_miss 249619
Core_0_LLC_total_overlap_miss 70312
Core_0_LLC_loads 178853
Core_0_LLC_load_hit 0
Core_0_LLC_load_miss 178853
Core_0_LLC_RFOs 70670
Core_0_LLC_RFO_hit 0
Core_0_LLC_RFO_miss 70670
Core_0_LLC_prefetches 0
Core_0_LLC_prefetch_hit 0
Core_0_LLC_prefetch_miss 0
Core_0_LLC_writebacks 70714
Core_0_LLC_writeback_hit 70618
Core_0_LLC_writeback_miss 96
Core_0_LLC_miss_rate 0.77948
Core_0_LLC_MPKI 4.99238
Core_0_LLC_demand_miss 249619
Core_0_LLC_prefetch_requested 0
Core_0_LLC_prefetch_issued 0
Core_0_LLC_prefetch_useful 0
Core_0_LLC_prefetch_useless 0
Core_0_LLC_prefetch_late 0
Core_0_LLC_average_miss_latency 187.99410
Core_0_LLC_active_cycles 28520393
Core_0_LLC_active_hit_cycles 1397148
Core_0_LLC_active_miss_cycles 27811533
Core_0_LLC_active_pure_miss_cycles 27123245
Core_0_LLC_active_hit_miss_overlap_cycles 688288
Core_0_LLC_total_pure_miss 249520
Core_0_LLC_pure_miss_rate 0.77917
Core_0_LLC_active_cycles_per_core 28520393
Core_0_LLC_active_hit_cycles_per_core 1397148
Core_0_LLC_active_miss_cycles_per_core 27811533
Core_0_LLC_active_pure_miss_cycles_per_core 27123245
Core_0_LLC_hit_miss_overlap_cycles_per_core 688288
Core_0_LLC_camat_per_core 89.06027

Pure^3_miss 249519
Core_0_major_page_fault 0
Core_0_minor_page_fault 2920

Channel_0_RQ_row_buffer_hit 60056
Channel_0_RQ_row_buffer_miss 189467
Channel_0_WQ_row_buffer_hit 11791
Channel_0_WQ_row_buffer_miss 59023
Channel_0_WQ_full 0
Channel_0_dbus_congested 63516

avg_congested_cycle 10
*************************************************
   ChampSim Multicore Out-of-Order Simulator
   Last compiled: Dec  1 2020 10:24:22
*************************************************
 DRAM access latency: 170
Off-chip DRAM Size: 4096 MB Channels: 1 Width: 64-bit Data Rate: 2400 MT/s
 DRAM_DBUS_RETURN_TIME: 13

trace_0 ./traces/437.leslie3d-265B.champsimtrace.xz
warmup_instructions 10000000
simulation_instructions 50000000
champsim_seed 223

num_cpus 1
cpu_freq 4000
dram_io_freq 2400
page_size 4096
block_size 64
max_read_per_cycle 20
max_fill_per_cycle 20
dram_channels 1
dram_ranks 1
dram_banks 8
dram_rows 65536
dram_columns 128
dram_row_size 8
dram_size 4096
dram_pages 1048576

fetch_width 20
decode_width 20
exec_width 20
lq_width 20
sq_width 20
retire_width 20
scheduler_size 128
branch_mispredict_penalty 20
rob_size 256
lq_size 72
sq_size 56
num_instr_destinations_sparc 4
num_instr_destinations 2
num_instr_sources 4

itlb_set 16
itlb_way 8
itlb_rq_size 16
itlb_wq_size 16
itlb_pq_size 0
itlb_mshr_size 8
itlb_latency 1

dtlb_set 16
dtlb_way 4
dtlb_rq_size 16
dtlb_wq_size 16
dtlb_pq_size 0
dtlb_mshr_size 8
dtlb_latency 1

stlb_set 128
stlb_way 12
stlb_rq_size 32
stlb_wq_size 32
stlb_pq_size 0
stlb_mshr_size 16
stlb_latency 8

l1i_size 32
l1i_set 64
l1i_way 8
l1i_rq_size 64
l1i_wq_size 64
l1i_pq_size 8
l1i_mshr_size 8
l1i_latency 1

l1d_size 32
l1d_set 64
l1d_way 8
l1d_rq_size 64
l1d_wq_size 64
l1d_pq_size 32
l1d_mshr_size 16
l1d_latency 4

l2c_size 256
l2c_set 512
l2c_way 8
l2c_rq_size 32
l2c_wq_size 32
l2c_pq_size 16
l2c_mshr_size 32
l2c_latency 10

llc_size 2048
llc_set 2048
llc_way 16
llc_rq_size 32
llc_wq_size 32
llc_pq_size 32
llc_mshr_size 64
llc_latency 20

dram_channel_width 8
dram_wq_size 64
dram_rq_size 64
tRP 15
tRCD 15
tCAS 12.5
dram_dbus_turn_around_time 30
dram_write_high_wm 56
dram_write_low_wm 48
min_dram_writes_per_switch 16
dram_mtps 2400
dram_dbus_return_time 13


Heartbeat CPU  0 instructions:    1000001 cycles:     341921 heartbeat IPC: 2.92466 cumulative IPC: 2.92466 (Simulation time: 0 hr 0 min 3 sec) 
Heartbeat CPU  0 instructions:    2000006 cycles:     682824 heartbeat IPC: 2.93340 cumulative IPC: 2.92902 (Simulation time: 0 hr 0 min 6 sec) 
Heartbeat CPU  0 instructions:    3000009 cycles:    1024002 heartbeat IPC: 2.93103 cumulative IPC: 2.92969 (Simulation time: 0 hr 0 min 9 sec) 
Heartbeat CPU  0 instructions:    4000000 cycles:    1365035 heartbeat IPC: 2.93224 cumulative IPC: 2.93033 (Simulation time: 0 hr 0 min 12 sec) 
Heartbeat CPU  0 instructions:    5000011 cycles:    1705312 heartbeat IPC: 2.93881 cumulative IPC: 2.93202 (Simulation time: 0 hr 0 min 15 sec) 
Heartbeat CPU  0 instructions:    6000003 cycles:    2046530 heartbeat IPC: 2.93065 cumulative IPC: 2.93179 (Simulation time: 0 hr 0 min 18 sec) 
Heartbeat CPU  0 instructions:    7000006 cycles:    2386258 heartbeat IPC: 2.94354 cumulative IPC: 2.93347 (Simulation time: 0 hr 0 min 22 sec) 
Heartbeat CPU  0 instructions:    8000000 cycles:    2727763 heartbeat IPC: 2.92820 cumulative IPC: 2.93281 (Simulation time: 0 hr 0 min 25 sec) 
Heartbeat CPU  0 instructions:    9000002 cycles:    3067514 heartbeat IPC: 2.94334 cumulative IPC: 2.93397 (Simulation time: 0 hr 0 min 28 sec) 
Heartbeat CPU  0 instructions:   10000005 cycles:    3408676 heartbeat IPC: 2.93117 cumulative IPC: 2.93369 (Simulation time: 0 hr 0 min 32 sec) 

Warmup complete CPU  0 instructions:   10000005 cycles:    3408676 (Simulation time: 0 hr 0 min 32 sec) 

Heartbeat CPU  0 instructions:   11000002 cycles:    4588638 heartbeat IPC: 0.84748 cumulative IPC: 0.84748 (Simulation time: 0 hr 0 min 42 sec) 
Heartbeat CPU  0 instructions:   12000000 cycles:    5777190 heartbeat IPC: 0.84136 cumulative IPC: 0.84441 (Simulation time: 0 hr 0 min 52 sec) 
Heartbeat CPU  0 instructions:   13000014 cycles:    6952790 heartbeat IPC: 0.85064 cumulative IPC: 0.84648 (Simulation time: 0 hr 1 min 0 sec) 
Heartbeat CPU  0 instructions:   14000006 cycles:    8154706 heartbeat IPC: 0.83200 cumulative IPC: 0.84281 (Simulation time: 0 hr 1 min 9 sec) 
Heartbeat CPU  0 instructions:   15000000 cycles:    9352183 heartbeat IPC: 0.83508 cumulative IPC: 0.84125 (Simulation time: 0 hr 1 min 18 sec) 
Heartbeat CPU  0 instructions:   16000000 cycles:   10548575 heartbeat IPC: 0.83585 cumulative IPC: 0.84035 (Simulation time: 0 hr 1 min 28 sec) 
Heartbeat CPU  0 instructions:   17000004 cycles:   11755201 heartbeat IPC: 0.82876 cumulative IPC: 0.83867 (Simulation time: 0 hr 1 min 37 sec) 
Heartbeat CPU  0 instructions:   18000011 cycles:   12950562 heartbeat IPC: 0.83657 cumulative IPC: 0.83841 (Simulation time: 0 hr 1 min 46 sec) 
Heartbeat CPU  0 instructions:   19000000 cycles:   14141422 heartbeat IPC: 0.83972 cumulative IPC: 0.83855 (Simulation time: 0 hr 1 min 56 sec) 
Heartbeat CPU  0 instructions:   20000000 cycles:   15320555 heartbeat IPC: 0.84808 cumulative IPC: 0.83950 (Simulation time: 0 hr 2 min 6 sec) 
Heartbeat CPU  0 instructions:   21000008 cycles:   16491612 heartbeat IPC: 0.85394 cumulative IPC: 0.84079 (Simulation time: 0 hr 2 min 17 sec) 
Heartbeat CPU  0 instructions:   22000005 cycles:   17680078 heartbeat IPC: 0.84142 cumulative IPC: 0.84084 (Simulation time: 0 hr 2 min 27 sec) 
Heartbeat CPU  0 instructions:   23000002 cycles:   18856086 heartbeat IPC: 0.85033 cumulative IPC: 0.84156 (Simulation time: 0 hr 2 min 37 sec) 
Heartbeat CPU  0 instructions:   24000000 cycles:   20053902 heartbeat IPC: 0.83485 cumulative IPC: 0.84108 (Simulation time: 0 hr 2 min 47 sec) 
Heartbeat CPU  0 instructions:   25000002 cycles:   21231917 heartbeat IPC: 0.84889 cumulative IPC: 0.84160 (Simulation time: 0 hr 2 min 57 sec) 
Heartbeat CPU  0 instructions:   26000019 cycles:   22471308 heartbeat IPC: 0.80686 cumulative IPC: 0.83934 (Simulation time: 0 hr 3 min 8 sec) 
Heartbeat CPU  0 instructions:   27000012 cycles:   23665894 heartbeat IPC: 0.83710 cumulative IPC: 0.83921 (Simulation time: 0 hr 3 min 19 sec) 
Heartbeat CPU  0 instructions:   28000000 cycles:   24877573 heartbeat IPC: 0.82529 cumulative IPC: 0.83842 (Simulation time: 0 hr 3 min 31 sec) 
Heartbeat CPU  0 instructions:   29000006 cycles:   26080422 heartbeat IPC: 0.83136 cumulative IPC: 0.83805 (Simulation time: 0 hr 3 min 43 sec) 
Heartbeat CPU  0 instructions:   30000002 cycles:   27264988 heartbeat IPC: 0.84419 cumulative IPC: 0.83835 (Simulation time: 0 hr 3 min 55 sec) 
Heartbeat CPU  0 instructions:   31000006 cycles:   28464874 heartbeat IPC: 0.83342 cumulative IPC: 0.83812 (Simulation time: 0 hr 4 min 7 sec) 
Heartbeat CPU  0 instructions:   32000000 cycles:   29637464 heartbeat IPC: 0.85281 cumulative IPC: 0.83877 (Simulation time: 0 hr 4 min 19 sec) 
Heartbeat CPU  0 instructions:   33000016 cycles:   30827551 heartbeat IPC: 0.84029 cumulative IPC: 0.83884 (Simulation time: 0 hr 4 min 32 sec) 
Heartbeat CPU  0 instructions:   34000012 cycles:   31982372 heartbeat IPC: 0.86593 cumulative IPC: 0.83993 (Simulation time: 0 hr 4 min 44 sec) 
Heartbeat CPU  0 instructions:   35000013 cycles:   33177819 heartbeat IPC: 0.83651 cumulative IPC: 0.83980 (Simulation time: 0 hr 4 min 58 sec) 
Heartbeat CPU  0 instructions:   36000000 cycles:   34340700 heartbeat IPC: 0.85992 cumulative IPC: 0.84055 (Simulation time: 0 hr 5 min 11 sec) 
Heartbeat CPU  0 instructions:   37000012 cycles:   35563775 heartbeat IPC: 0.81762 cumulative IPC: 0.83968 (Simulation time: 0 hr 5 min 24 sec) 
Heartbeat CPU  0 instructions:   38000012 cycles:   36734429 heartbeat IPC: 0.85422 cumulative IPC: 0.84019 (Simulation time: 0 hr 5 min 36 sec) 
Heartbeat CPU  0 instructions:   39000016 cycles:   37935944 heartbeat IPC: 0.83229 cumulative IPC: 0.83992 (Simulation time: 0 hr 5 min 50 sec) 
Heartbeat CPU  0 instructions:   40000000 cycles:   39089754 heartbeat IPC: 0.86668 cumulative IPC: 0.84078 (Simulation time: 0 hr 6 min 2 sec) 
Heartbeat CPU  0 instructions:   41000016 cycles:   40280808 heartbeat IPC: 0.83961 cumulative IPC: 0.84074 (Simulation time: 0 hr 6 min 16 sec) 
Heartbeat CPU  0 instructions:   42000000 cycles:   41439123 heartbeat IPC: 0.86331 cumulative IPC: 0.84143 (Simulation time: 0 hr 6 min 29 sec) 
Heartbeat CPU  0 instructions:   43000002 cycles:   42618562 heartbeat IPC: 0.84786 cumulative IPC: 0.84162 (Simulation time: 0 hr 6 min 42 sec) 
Heartbeat CPU  0 instructions:   44000000 cycles:   43811262 heartbeat IPC: 0.83843 cumulative IPC: 0.84153 (Simulation time: 0 hr 6 min 56 sec) 
Heartbeat CPU  0 instructions:   45000015 cycles:   45014194 heartbeat IPC: 0.83131 cumulative IPC: 0.84123 (Simulation time: 0 hr 7 min 9 sec) 
Heartbeat CPU  0 instructions:   46000003 cycles:   46197511 heartbeat IPC: 0.84507 cumulative IPC: 0.84134 (Simulation time: 0 hr 7 min 23 sec) 
Heartbeat CPU  0 instructions:   47000008 cycles:   47394034 heartbeat IPC: 0.83576 cumulative IPC: 0.84119 (Simulation time: 0 hr 7 min 36 sec) 
Heartbeat CPU  0 instructions:   48000000 cycles:   48601619 heartbeat IPC: 0.82809 cumulative IPC: 0.84084 (Simulation time: 0 hr 7 min 49 sec) 
Heartbeat CPU  0 instructions:   49000009 cycles:   49822147 heartbeat IPC: 0.81932 cumulative IPC: 0.84027 (Simulation time: 0 hr 8 min 2 sec) 
Heartbeat CPU  0 instructions:   50000016 cycles:   51019506 heartbeat IPC: 0.83518 cumulative IPC: 0.84015 (Simulation time: 0 hr 8 min 16 sec) 
Heartbeat CPU  0 instructions:   51000007 cycles:   52201265 heartbeat IPC: 0.84619 cumulative IPC: 0.84029 (Simulation time: 0 hr 8 min 29 sec) 
Heartbeat CPU  0 instructions:   52000000 cycles:   53410108 heartbeat IPC: 0.82723 cumulative IPC: 0.83998 (Simulation time: 0 hr 8 min 42 sec) 
Heartbeat CPU  0 instructions:   53000009 cycles:   54588783 heartbeat IPC: 0.84842 cumulative IPC: 0.84017 (Simulation time: 0 hr 8 min 55 sec) 
Heartbeat CPU  0 instructions:   54000000 cycles:   55795755 heartbeat IPC: 0.82851 cumulative IPC: 0.83990 (Simulation time: 0 hr 9 min 8 sec) 
Heartbeat CPU  0 instructions:   55000013 cycles:   56955949 heartbeat IPC: 0.86194 cumulative IPC: 0.84038 (Simulation time: 0 hr 9 min 20 sec) 
Heartbeat CPU  0 instructions:   56000000 cycles:   58130955 heartbeat IPC: 0.85105 cumulative IPC: 0.84061 (Simulation time: 0 hr 9 min 33 sec) 
Heartbeat CPU  0 instructions:   57000014 cycles:   59310483 heartbeat IPC: 0.84781 cumulative IPC: 0.84076 (Simulation time: 0 hr 9 min 46 sec) 
Heartbeat CPU  0 instructions:   58000014 cycles:   60507992 heartbeat IPC: 0.83507 cumulative IPC: 0.84064 (Simulation time: 0 hr 9 min 59 sec) 
Heartbeat CPU  0 instructions:   59000011 cycles:   61700011 heartbeat IPC: 0.83891 cumulative IPC: 0.84061 (Simulation time: 0 hr 10 min 13 sec) 
Heartbeat CPU  0 instructions:   60000000 cycles:   62926062 heartbeat IPC: 0.81562 cumulative IPC: 0.84009 (Simulation time: 0 hr 10 min 26 sec) 
Finished CPU 0 instructions: 50000000 cycles: 59517399 cumulative IPC: 0.84009 (Simulation time: 0 hr 10 min 26 sec) 

ChampSim completed all CPUs

[ROI Statistics]
Core_0_instructions 50000000
Core_0_cycles 59517399
Core_0_IPC 0.84009

Core_0_branch_prediction_accuracy 99.09439
Core_0_branch_MPKI 0.24092
Core_0_average_ROB_occupancy_at_mispredict 229.13349

Core_0_L1D_total_access 13226588
Core_0_L1D_total_hit 12663970
Core_0_L1D_total_miss 562618
Core_0_L1D_total_overlap_miss 514997
Core_0_L1D_loads 11534189
Core_0_L1D_load_hit 11102179
Core_0_L1D_load_miss 432010
Core_0_L1D_RFOs 1692399
Core_0_L1D_RFO_hit 1561791
Core_0_L1D_RFO_miss 130608
Core_0_L1D_prefetches 0
Core_0_L1D_prefetch_hit 0
Core_0_L1D_prefetch_miss 0
Core_0_L1D_writebacks 0
Core_0_L1D_writeback_hit 0
Core_0_L1D_writeback_miss 0
Core_0_L1D_miss_rate 0.04254
Core_0_L1D_MPKI 11.25236
Core_0_L1D_demand_miss 562618
Core_0_L1D_prefetch_requested 0
Core_0_L1D_prefetch_issued 0
Core_0_L1D_prefetch_useful 0
Core_0_L1D_prefetch_useless 0
Core_0_L1D_prefetch_late 0
Core_0_L1D_average_miss_latency 112.42900
Core_0_L1D_active_cycles 52523520
Core_0_L1D_active_hit_cycles 26631033
Core_0_L1D_active_miss_cycles 35454017
Core_0_L1D_active_pure_miss_cycles 25892487
Core_0_L1D_active_hit_miss_overlap_cycles 9561530
Core_0_L1D_total_pure_miss 502567
Core_0_L1D_pure_miss_rate 0.03800
Core_0_L1D_active_cycles_per_core 52523520
Core_0_L1D_active_hit_cycles_per_core 26631033
Core_0_L1D_active_miss_cycles_per_core 35454017
Core_0_L1D_active_pure_miss_cycles_per_core 25892487
Core_0_L1D_hit_miss_overlap_cycles_per_core 9561530
Core_0_L1D_camat_per_core 3.97106

Pure^3_miss 0
Core_0_L1I_total_access 8561316
Core_0_L1I_total_hit 8561316
Core_0_L1I_total_miss 0
Core_0_L1I_total_overlap_miss 0
Core_0_L1I_loads 8561316
Core_0_L1I_load_hit 8561316
Core_0_L1I_load_miss 0
Core_0_L1I_RFOs 0
Core_0_L1I_RFO_hit 0
Core_0_L1I_RFO_miss 0
Core_0_L1I_prefetches 0
Core_0_L1I_prefetch_hit 0
Core_0_L1I_prefetch_miss 0
Core_0_L1I_writebacks 0
Core_0_L1I_writeback_hit 0
Core_0_L1I_writeback_miss 0
Core_0_L1I_miss_rate 0.00000
Core_0_L1I_MPKI 0.00000
Core_0_L1I_demand_miss 0
Core_0_L1I_prefetch_requested 0
Core_0_L1I_prefetch_issued 0
Core_0_L1I_prefetch_useful 0
Core_0_L1I_prefetch_useless 0
Core_0_L1I_prefetch_late 0
Core_0_L1I_average_miss_latency -nan
Core_0_L1I_active_cycles 11767419
Core_0_L1I_active_hit_cycles 11767419
Core_0_L1I_active_miss_cycles 0
Core_0_L1I_active_pure_miss_cycles 0
Core_0_L1I_active_hit_miss_overlap_cycles 0
Core_0_L1I_total_pure_miss 0
Core_0_L1I_pure_miss_rate 0.00000
Core_0_L1I_active_cycles_per_core 11767419
Core_0_L1I_active_hit_cycles_per_core 11767419
Core_0_L1I_active_miss_cycles_per_core 0
Core_0_L1I_active_pure_miss_cycles_per_core 0
Core_0_L1I_hit_miss_overlap_cycles_per_core 0
Core_0_L1I_camat_per_core 1.37449

Pure^3_miss 0
Core_0_L2C_total_access 741423
Core_0_L2C_total_hit 460411
Core_0_L2C_total_miss 281012
Core_0_L2C_total_overlap_miss 95508
Core_0_L2C_loads 432007
Core_0_L2C_load_hit 196140
Core_0_L2C_load_miss 235867
Core_0_L2C_RFOs 130602
Core_0_L2C_RFO_hit 85458
Core_0_L2C_RFO_miss 45144
Core_0_L2C_prefetches 0
Core_0_L2C_prefetch_hit 0
Core_0_L2C_prefetch_miss 0
Core_0_L2C_writebacks 178814
Core_0_L2C_writeback_hit 178813
Core_0_L2C_writeback_miss 1
Core_0_L2C_miss_rate 0.37902
Core_0_L2C_MPKI 5.62024
Core_0_L2C_demand_miss 281012
Core_0_L2C_prefetch_requested 0
Core_0_L2C_prefetch_issued 0
Core_0_L2C_prefetch_useful 0
Core_0_L2C_prefetch_useless 0
Core_0_L2C_prefetch_late 0
Core_0_L2C_average_miss_latency 196.90530
Core_0_L2C_active_cycles 34166201
Core_0_L2C_active_hit_cycles 4381409
Core_0_L2C_active_miss_cycles 30888173
Core_0_L2C_active_pure_miss_cycles 29784792
Core_0_L2C_active_hit_miss_overlap_cycles 1103381
Core_0_L2C_total_pure_miss 281002
Core_0_L2C_pure_miss_rate 0.37900
Core_0_L2C_active_cycles_per_core 34166201
Core_0_L2C_active_hit_cycles_per_core 4381409
Core_0_L2C_active_miss_cycles_per_core 30888173
Core_0_L2C_active_pure_miss_cycles_per_core 29784792
Core_0_L2C_hit_miss_overlap_cycles_per_core 1103381
Core_0_L2C_camat_per_core 46.08193

Pure^3_miss 0
Core_0_LLC_total_access 326186
Core_0_LLC_total_hit 45230
Core_0_LLC_total_miss 280956
Core_0_LLC_total_overlap_miss 39885
Core_0_LLC_loads 235867
Core_0_LLC_load_hit 65
Core_0_LLC_load_miss 235802
Core_0_LLC_RFOs 45144
Core_0_LLC_RFO_hit 9
Core_0_LLC_RFO_miss 45135
Core_0_LLC_prefetches 0
Core_0_LLC_prefetch_hit 0
Core_0_LLC_prefetch_miss 0
Core_0_LLC_writebacks 45175
Core_0_LLC_writeback_hit 45156
Core_0_LLC_writeback_miss 19
Core_0_LLC_miss_rate 0.86134
Core_0_LLC_MPKI 5.61912
Core_0_LLC_demand_miss 280956
Core_0_LLC_prefetch_requested 0
Core_0_LLC_prefetch_issued 0
Core_0_LLC_prefetch_useful 0
Core_0_LLC_prefetch_useless 0
Core_0_LLC_prefetch_late 0
Core_0_LLC_average_miss_latency 166.73662
Core_0_LLC_active_cycles 27588064
Core_0_LLC_active_hit_cycles 946838
Core_0_LLC_active_miss_cycles 27199602
Core_0_LLC_active_pure_miss_cycles 26641226
Core_0_LLC_active_hit_miss_overlap_cycles 558376
Core_0_LLC_total_pure_miss 280937
Core_0_LLC_pure_miss_rate 0.86128
Core_0_LLC_active_cycles_per_core 27588064
Core_0_LLC_active_hit_cycles_per_core 946838
Core_0_LLC_active_miss_cycles_per_core 27199602
Core_0_LLC_active_pure_miss_cycles_per_core 26641226
Core_0_LLC_hit_miss_overlap_cycles_per_core 558376
Core_0_LLC_camat_per_core 84.57771

Pure^3_miss 280937
Core_0_major_page_fault 0
Core_0_minor_page_fault 3757

Channel_0_RQ_row_buffer_hit 173147
Channel_0_RQ_row_buffer_miss 107790
Channel_0_WQ_row_buffer_hit 11423
Channel_0_WQ_row_buffer_miss 33421
Channel_0_WQ_full 0
Channel_0_dbus_congested 13161

avg_congested_cycle 10
*************************************************
   ChampSim Multicore Out-of-Order Simulator
   Last compiled: Dec  1 2020 10:24:22
*************************************************
 DRAM access latency: 170
Off-chip DRAM Size: 4096 MB Channels: 1 Width: 64-bit Data Rate: 2400 MT/s
 DRAM_DBUS_RETURN_TIME: 13

trace_0 ./traces/459.GemsFDTD-1491B.champsimtrace.xz
warmup_instructions 10000000
simulation_instructions 50000000
champsim_seed 273

num_cpus 1
cpu_freq 4000
dram_io_freq 2400
page_size 4096
block_size 64
max_read_per_cycle 20
max_fill_per_cycle 20
dram_channels 1
dram_ranks 1
dram_banks 8
dram_rows 65536
dram_columns 128
dram_row_size 8
dram_size 4096
dram_pages 1048576

fetch_width 20
decode_width 20
exec_width 20
lq_width 20
sq_width 20
retire_width 20
scheduler_size 128
branch_mispredict_penalty 20
rob_size 256
lq_size 72
sq_size 56
num_instr_destinations_sparc 4
num_instr_destinations 2
num_instr_sources 4

itlb_set 16
itlb_way 8
itlb_rq_size 16
itlb_wq_size 16
itlb_pq_size 0
itlb_mshr_size 8
itlb_latency 1

dtlb_set 16
dtlb_way 4
dtlb_rq_size 16
dtlb_wq_size 16
dtlb_pq_size 0
dtlb_mshr_size 8
dtlb_latency 1

stlb_set 128
stlb_way 12
stlb_rq_size 32
stlb_wq_size 32
stlb_pq_size 0
stlb_mshr_size 16
stlb_latency 8

l1i_size 32
l1i_set 64
l1i_way 8
l1i_rq_size 64
l1i_wq_size 64
l1i_pq_size 8
l1i_mshr_size 8
l1i_latency 1

l1d_size 32
l1d_set 64
l1d_way 8
l1d_rq_size 64
l1d_wq_size 64
l1d_pq_size 32
l1d_mshr_size 16
l1d_latency 4

l2c_size 256
l2c_set 512
l2c_way 8
l2c_rq_size 32
l2c_wq_size 32
l2c_pq_size 16
l2c_mshr_size 32
l2c_latency 10

llc_size 2048
llc_set 2048
llc_way 16
llc_rq_size 32
llc_wq_size 32
llc_pq_size 32
llc_mshr_size 64
llc_latency 20

dram_channel_width 8
dram_wq_size 64
dram_rq_size 64
tRP 15
tRCD 15
tCAS 12.5
dram_dbus_turn_around_time 30
dram_write_high_wm 56
dram_write_low_wm 48
min_dram_writes_per_switch 16
dram_mtps 2400
dram_dbus_return_time 13


Heartbeat CPU  0 instructions:    1000001 cycles:     279691 heartbeat IPC: 3.57538 cumulative IPC: 3.57538 (Simulation time: 0 hr 0 min 3 sec) 
Heartbeat CPU  0 instructions:    2000003 cycles:     559028 heartbeat IPC: 3.57991 cumulative IPC: 3.57764 (Simulation time: 0 hr 0 min 6 sec) 
Heartbeat CPU  0 instructions:    3000009 cycles:     838131 heartbeat IPC: 3.58293 cumulative IPC: 3.57940 (Simulation time: 0 hr 0 min 10 sec) 
Heartbeat CPU  0 instructions:    4000000 cycles:    1117297 heartbeat IPC: 3.58207 cumulative IPC: 3.58007 (Simulation time: 0 hr 0 min 13 sec) 
Heartbeat CPU  0 instructions:    5000017 cycles:    1396298 heartbeat IPC: 3.58428 cumulative IPC: 3.58091 (Simulation time: 0 hr 0 min 16 sec) 
Heartbeat CPU  0 instructions:    6000005 cycles:    1675478 heartbeat IPC: 3.58188 cumulative IPC: 3.58107 (Simulation time: 0 hr 0 min 19 sec) 
Heartbeat CPU  0 instructions:    7000013 cycles:    1954782 heartbeat IPC: 3.58036 cumulative IPC: 3.58097 (Simulation time: 0 hr 0 min 22 sec) 
Heartbeat CPU  0 instructions:    8000000 cycles:    2234389 heartbeat IPC: 3.57640 cumulative IPC: 3.58040 (Simulation time: 0 hr 0 min 26 sec) 
Heartbeat CPU  0 instructions:    9000001 cycles:    2513985 heartbeat IPC: 3.57659 cumulative IPC: 3.57997 (Simulation time: 0 hr 0 min 29 sec) 
Heartbeat CPU  0 instructions:   10000002 cycles:    2793114 heartbeat IPC: 3.58258 cumulative IPC: 3.58023 (Simulation time: 0 hr 0 min 32 sec) 

Warmup complete CPU  0 instructions:   10000002 cycles:    2793114 (Simulation time: 0 hr 0 min 32 sec) 

Heartbeat CPU  0 instructions:   11000001 cycles:    5652867 heartbeat IPC: 0.34968 cumulative IPC: 0.34968 (Simulation time: 0 hr 0 min 58 sec) 
Heartbeat CPU  0 instructions:   12000000 cycles:    8515198 heartbeat IPC: 0.34937 cumulative IPC: 0.34952 (Simulation time: 0 hr 1 min 21 sec) 
Heartbeat CPU  0 instructions:   13000008 cycles:   11449486 heartbeat IPC: 0.34080 cumulative IPC: 0.34657 (Simulation time: 0 hr 1 min 46 sec) 
Heartbeat CPU  0 instructions:   14000001 cycles:   14338934 heartbeat IPC: 0.34608 cumulative IPC: 0.34645 (Simulation time: 0 hr 2 min 13 sec) 
Heartbeat CPU  0 instructions:   15000012 cycles:   17208280 heartbeat IPC: 0.34852 cumulative IPC: 0.34686 (Simulation time: 0 hr 2 min 45 sec) 
Heartbeat CPU  0 instructions:   16000000 cycles:   20050206 heartbeat IPC: 0.35187 cumulative IPC: 0.34768 (Simulation time: 0 hr 3 min 18 sec) 
Heartbeat CPU  0 instructions:   17000000 cycles:   22923691 heartbeat IPC: 0.34801 cumulative IPC: 0.34773 (Simulation time: 0 hr 3 min 52 sec) 
Heartbeat CPU  0 instructions:   18000004 cycles:   25812542 heartbeat IPC: 0.34616 cumulative IPC: 0.34753 (Simulation time: 0 hr 4 min 25 sec) 
Heartbeat CPU  0 instructions:   19000008 cycles:   28677957 heartbeat IPC: 0.34899 cumulative IPC: 0.34769 (Simulation time: 0 hr 5 min 0 sec) 
Heartbeat CPU  0 instructions:   20000000 cycles:   31547831 heartbeat IPC: 0.34844 cumulative IPC: 0.34777 (Simulation time: 0 hr 5 min 34 sec) 
Heartbeat CPU  0 instructions:   21000000 cycles:   34470174 heartbeat IPC: 0.34219 cumulative IPC: 0.34725 (Simulation time: 0 hr 6 min 11 sec) 
Heartbeat CPU  0 instructions:   22000005 cycles:   37321305 heartbeat IPC: 0.35074 cumulative IPC: 0.34754 (Simulation time: 0 hr 6 min 49 sec) 
Heartbeat CPU  0 instructions:   23000011 cycles:   40243259 heartbeat IPC: 0.34224 cumulative IPC: 0.34713 (Simulation time: 0 hr 7 min 25 sec) 
Heartbeat CPU  0 instructions:   24000000 cycles:   43097115 heartbeat IPC: 0.35040 cumulative IPC: 0.34736 (Simulation time: 0 hr 8 min 2 sec) 
Heartbeat CPU  0 instructions:   25000019 cycles:   45961520 heartbeat IPC: 0.34912 cumulative IPC: 0.34748 (Simulation time: 0 hr 8 min 38 sec) 
Heartbeat CPU  0 instructions:   26000007 cycles:   48841005 heartbeat IPC: 0.34728 cumulative IPC: 0.34746 (Simulation time: 0 hr 9 min 15 sec) 
Heartbeat CPU  0 instructions:   27000005 cycles:   51683573 heartbeat IPC: 0.35179 cumulative IPC: 0.34772 (Simulation time: 0 hr 9 min 51 sec) 
Heartbeat CPU  0 instructions:   28000000 cycles:   54605526 heartbeat IPC: 0.34224 cumulative IPC: 0.34741 (Simulation time: 0 hr 10 min 28 sec) 
Heartbeat CPU  0 instructions:   29000016 cycles:   57463743 heartbeat IPC: 0.34987 cumulative IPC: 0.34754 (Simulation time: 0 hr 11 min 5 sec) 
Heartbeat CPU  0 instructions:   30000000 cycles:   60361488 heartbeat IPC: 0.34509 cumulative IPC: 0.34741 (Simulation time: 0 hr 11 min 43 sec) 
Heartbeat CPU  0 instructions:   31000006 cycles:   63211879 heartbeat IPC: 0.35083 cumulative IPC: 0.34757 (Simulation time: 0 hr 12 min 20 sec) 
Heartbeat CPU  0 instructions:   32000000 cycles:   66123700 heartbeat IPC: 0.34343 cumulative IPC: 0.34738 (Simulation time: 0 hr 12 min 57 sec) 
Heartbeat CPU  0 instructions:   33000002 cycles:   69016348 heartbeat IPC: 0.34570 cumulative IPC: 0.34731 (Simulation time: 0 hr 13 min 35 sec) 
Heartbeat CPU  0 instructions:   34000002 cycles:   71916617 heartbeat IPC: 0.34480 cumulative IPC: 0.34720 (Simulation time: 0 hr 14 min 13 sec) 
Heartbeat CPU  0 instructions:   35000009 cycles:   74798077 heartbeat IPC: 0.34705 cumulative IPC: 0.34720 (Simulation time: 0 hr 14 min 50 sec) 
Heartbeat CPU  0 instructions:   36000000 cycles:   77677343 heartbeat IPC: 0.34731 cumulative IPC: 0.34720 (Simulation time: 0 hr 15 min 28 sec) 
Heartbeat CPU  0 instructions:   37000003 cycles:   80543757 heartbeat IPC: 0.34887 cumulative IPC: 0.34726 (Simulation time: 0 hr 16 min 5 sec) 
Heartbeat CPU  0 instructions:   38000004 cycles:   83413740 heartbeat IPC: 0.34843 cumulative IPC: 0.34731 (Simulation time: 0 hr 16 min 42 sec) 
Heartbeat CPU  0 instructions:   39000006 cycles:   86288362 heartbeat IPC: 0.34787 cumulative IPC: 0.34733 (Simulation time: 0 hr 17 min 19 sec) 
Heartbeat CPU  0 instructions:   40000000 cycles:   89174978 heartbeat IPC: 0.34642 cumulative IPC: 0.34730 (Simulation time: 0 hr 17 min 57 sec) 
Heartbeat CPU  0 instructions:   41000019 cycles:   92074253 heartbeat IPC: 0.34492 cumulative IPC: 0.34722 (Simulation time: 0 hr 18 min 35 sec) 
Heartbeat CPU  0 instructions:   42000013 cycles:   94926859 heartbeat IPC: 0.35055 cumulative IPC: 0.34732 (Simulation time: 0 hr 19 min 12 sec) 
Heartbeat CPU  0 instructions:   43000007 cycles:   97819983 heartbeat IPC: 0.34565 cumulative IPC: 0.34727 (Simulation time: 0 hr 19 min 49 sec) 
Heartbeat CPU  0 instructions:   44000000 cycles:  100692646 heartbeat IPC: 0.34811 cumulative IPC: 0.34729 (Simulation time: 0 hr 20 min 27 sec) 
Heartbeat CPU  0 instructions:   45000018 cycles:  103609503 heartbeat IPC: 0.34284 cumulative IPC: 0.34717 (Simulation time: 0 hr 21 min 6 sec) 
Heartbeat CPU  0 instructions:   46000003 cycles:  106531561 heartbeat IPC: 0.34222 cumulative IPC: 0.34703 (Simulation time: 0 hr 21 min 45 sec) 
Heartbeat CPU  0 instructions:   47000009 cycles:  109393712 heartbeat IPC: 0.34939 cumulative IPC: 0.34709 (Simulation time: 0 hr 22 min 22 sec) 
Heartbeat CPU  0 instructions:   48000000 cycles:  112283440 heartbeat IPC: 0.34605 cumulative IPC: 0.34706 (Simulation time: 0 hr 23 min 0 sec) 
Heartbeat CPU  0 instructions:   49000017 cycles:  115184960 heartbeat IPC: 0.34465 cumulative IPC: 0.34700 (Simulation time: 0 hr 23 min 38 sec) 
Heartbeat CPU  0 instructions:   50000001 cycles:  118041489 heartbeat IPC: 0.35007 cumulative IPC: 0.34708 (Simulation time: 0 hr 24 min 17 sec) 
Heartbeat CPU  0 instructions:   51000002 cycles:  120933872 heartbeat IPC: 0.34574 cumulative IPC: 0.34704 (Simulation time: 0 hr 24 min 54 sec) 
Heartbeat CPU  0 instructions:   52000000 cycles:  123800777 heartbeat IPC: 0.34881 cumulative IPC: 0.34709 (Simulation time: 0 hr 25 min 32 sec) 
Heartbeat CPU  0 instructions:   53000001 cycles:  126642731 heartbeat IPC: 0.35187 cumulative IPC: 0.34720 (Simulation time: 0 hr 26 min 10 sec) 
Heartbeat CPU  0 instructions:   54000000 cycles:  129534577 heartbeat IPC: 0.34580 cumulative IPC: 0.34716 (Simulation time: 0 hr 26 min 49 sec) 
Heartbeat CPU  0 instructions:   55000009 cycles:  132434169 heartbeat IPC: 0.34488 cumulative IPC: 0.34711 (Simulation time: 0 hr 27 min 28 sec) 
Heartbeat CPU  0 instructions:   56000000 cycles:  135308362 heartbeat IPC: 0.34792 cumulative IPC: 0.34713 (Simulation time: 0 hr 28 min 6 sec) 
Heartbeat CPU  0 instructions:   57000000 cycles:  138195055 heartbeat IPC: 0.34642 cumulative IPC: 0.34711 (Simulation time: 0 hr 28 min 45 sec) 
Heartbeat CPU  0 instructions:   58000005 cycles:  141099261 heartbeat IPC: 0.34433 cumulative IPC: 0.34706 (Simulation time: 0 hr 29 min 24 sec) 
Heartbeat CPU  0 instructions:   59000005 cycles:  144003708 heartbeat IPC: 0.34430 cumulative IPC: 0.34700 (Simulation time: 0 hr 30 min 3 sec) 
Heartbeat CPU  0 instructions:   60000000 cycles:  146904893 heartbeat IPC: 0.34469 cumulative IPC: 0.34695 (Simulation time: 0 hr 30 min 42 sec) 
Finished CPU 0 instructions: 50000001 cycles: 144111793 cumulative IPC: 0.34695 (Simulation time: 0 hr 30 min 42 sec) 

ChampSim completed all CPUs

[ROI Statistics]
Core_0_instructions 50000001
Core_0_cycles 144111793
Core_0_IPC 0.34695

Core_0_branch_prediction_accuracy 99.52607
Core_0_branch_MPKI 0.11388
Core_0_average_ROB_occupancy_at_mispredict 248.87759

Core_0_L1D_total_access 14348590
Core_0_L1D_total_hit 13118965
Core_0_L1D_total_miss 1229625
Core_0_L1D_total_overlap_miss 1203479
Core_0_L1D_loads 10755257
Core_0_L1D_load_hit 9525632
Core_0_L1D_load_miss 1229625
Core_0_L1D_RFOs 3593333
Core_0_L1D_RFO_hit 3593333
Core_0_L1D_RFO_miss 0
Core_0_L1D_prefetches 0
Core_0_L1D_prefetch_hit 0
Core_0_L1D_prefetch_miss 0
Core_0_L1D_writebacks 0
Core_0_L1D_writeback_hit 0
Core_0_L1D_writeback_miss 0
Core_0_L1D_miss_rate 0.08570
Core_0_L1D_MPKI 24.59250
Core_0_L1D_demand_miss 1229625
Core_0_L1D_prefetch_requested 0
Core_0_L1D_prefetch_issued 0
Core_0_L1D_prefetch_useful 0
Core_0_L1D_prefetch_useless 0
Core_0_L1D_prefetch_late 0
Core_0_L1D_average_miss_latency 262.56755
Core_0_L1D_active_cycles 137402600
Core_0_L1D_active_hit_cycles 29008933
Core_0_L1D_active_miss_cycles 128140839
Core_0_L1D_active_pure_miss_cycles 108393667
Core_0_L1D_active_hit_miss_overlap_cycles 19747172
Core_0_L1D_total_pure_miss 1229304
Core_0_L1D_pure_miss_rate 0.08567
Core_0_L1D_active_cycles_per_core 137402600
Core_0_L1D_active_hit_cycles_per_core 29008933
Core_0_L1D_active_miss_cycles_per_core 128140839
Core_0_L1D_active_pure_miss_cycles_per_core 108393667
Core_0_L1D_hit_miss_overlap_cycles_per_core 19747172
Core_0_L1D_camat_per_core 9.57603

Pure^3_miss 0
Core_0_L1I_total_access 9339310
Core_0_L1I_total_hit 9339310
Core_0_L1I_total_miss 0
Core_0_L1I_total_overlap_miss 0
Core_0_L1I_loads 9339310
Core_0_L1I_load_hit 9339310
Core_0_L1I_load_miss 0
Core_0_L1I_RFOs 0
Core_0_L1I_RFO_hit 0
[...]
Core_0_L1I_MPKI 0.00000
Core_0_L1I_demand_miss 0
Core_0_L1I_prefetch_requested 0
Core_0_L1I_prefetch_issued 0
Core_0_L1I_prefetch_useful 0
Core_0_L1I_prefetch_useless 0
Core_0_L1I_prefetch_late 0
Core_0_L1I_average_miss_latency -nan
Core_0_L1I_active_cycles 29357976
Core_0_L1I_active_hit_cycles 29357976
Core_0_L1I_active_miss_cycles 0
Core_0_L1I_active_pure_miss_cycles 0
Core_0_L1I_active_hit_miss_overlap_cycles 0
Core_0_L1I_total_pure_miss 0
Core_0_L1I_pure_miss_rate 0.00000
Core_0_L1I_active_cycles_per_core 29357976
Core_0_L1I_active_hit_cycles_per_core 29357976
Core_0_L1I_active_miss_cycles_per_core 0
Core_0_L1I_active_pure_miss_cycles_per_core 0
Core_0_L1I_hit_miss_overlap_cycles_per_core 0
Core_0_L1I_camat_per_core 1.64279

Pure^3_miss 0
Core_0_L2C_total_access 1257596
Core_0_L2C_total_hit 15857
Core_0_L2C_total_miss 1241739
Core_0_L2C_total_overlap_miss 533
Core_0_L2C_loads 1257556
Core_0_L2C_load_hit 15817
Core_0_L2C_load_miss 1241739
Core_0_L2C_RFOs 0
Core_0_L2C_RFO_hit 0
Core_0_L2C_RFO_miss 0
Core_0_L2C_prefetches 0
Core_0_L2C_prefetch_hit 0
Core_0_L2C_prefetch_miss 0
Core_0_L2C_writebacks 40
Core_0_L2C_writeback_hit 40
Core_0_L2C_writeback_miss 0
Core_0_L2C_miss_rate 0.98739
Core_0_L2C_MPKI 24.83478
Core_0_L2C_demand_miss 1241739
Core_0_L2C_prefetch_requested 0
Core_0_L2C_prefetch_issued 0
Core_0_L2C_prefetch_useful 0
Core_0_L2C_prefetch_useless 0
Core_0_L2C_prefetch_late 0
Core_0_L2C_average_miss_latency 93.56024
Core_0_L2C_active_cycles 71706207
Core_0_L2C_active_hit_cycles 109925
Core_0_L2C_active_miss_cycles 71601943
Core_0_L2C_active_pure_miss_cycles 71596282
Core_0_L2C_active_hit_miss_overlap_cycles 5661
Core_0_L2C_total_pure_miss 1241739
Core_0_L2C_pure_miss_rate 0.98739
Core_0_L2C_active_cycles_per_core 71706207
Core_0_L2C_active_hit_cycles_per_core 109925
Core_0_L2C_active_miss_cycles_per_core 71601943
Core_0_L2C_active_pure_miss_cycles_per_core 71596282
Core_0_L2C_hit_miss_overlap_cycles_per_core 5661
Core_0_L2C_camat_per_core 57.01848

Pure^3_miss 0
Core_0_LLC_total_access 1241774
Core_0_LLC_total_hit 286787
Core_0_LLC_total_miss 954987
Core_0_LLC_total_overlap_miss 25599
Core_0_LLC_loads 1241739
Core_0_LLC_load_hit 286752
Core_0_LLC_load_miss 954987
Core_0_LLC_RFOs 0
Core_0_LLC_RFO_hit 0
Core_0_LLC_RFO_miss 0
Core_0_LLC_prefetches 0
Core_0_LLC_prefetch_hit 0
Core_0_LLC_prefetch_miss 0
Core_0_LLC_writebacks 35
Core_0_LLC_writeback_hit 35
Core_0_LLC_writeback_miss 0
Core_0_LLC_miss_rate 0.76905
Core_0_LLC_MPKI 19.09974
Core_0_LLC_demand_miss 954987
Core_0_LLC_prefetch_requested 0
Core_0_LLC_prefetch_issued 0
Core_0_LLC_prefetch_useful 0
Core_0_LLC_prefetch_useless 0
Core_0_LLC_prefetch_late 0
Core_0_LLC_average_miss_latency 82.51515
Core_0_LLC_active_cycles 53783365
Core_0_LLC_active_hit_cycles 3973261
Core_0_LLC_active_miss_cycles 50194003
Core_0_LLC_active_pure_miss_cycles 49810104
Core_0_LLC_active_hit_miss_overlap_cycles 383899
Core_0_LLC_total_pure_miss 954987
Core_0_LLC_pure_miss_rate 0.76905
Core_0_LLC_active_cycles_per_core 53783365
Core_0_LLC_active_hit_cycles_per_core 3973261
Core_0_LLC_active_miss_cycles_per_core 50194003
Core_0_LLC_active_pure_miss_cycles_per_core 49810104
Core_0_LLC_hit_miss_overlap_cycles_per_core 383899
Core_0_LLC_camat_per_core 43.31172

Pure^3_miss 954987
Core_0_major_page_fault 0
Core_0_minor_page_fault 1296

Channel_0_RQ_row_buffer_hit 903823
Channel_0_RQ_row_buffer_miss 51164
Channel_0_WQ_row_buffer_hit 0
Channel_0_WQ_row_buffer_miss 18
Channel_0_WQ_full 0
Channel_0_dbus_congested 290745

avg_congested_cycle 11
*************************************************
   ChampSim Multicore Out-of-Order Simulator
   Last compiled: Dec  1 2020 10:24:22
*************************************************
 DRAM access latency: 170
Off-chip DRAM Size: 4096 MB Channels: 1 Width: 64-bit Data Rate: 2400 MT/s
 DRAM_DBUS_RETURN_TIME: 13

trace_0 ./traces/654.roms_s-293B.champsimtrace.xz
warmup_instructions 10000000
simulation_instructions 50000000
champsim_seed 224

num_cpus 1
cpu_freq 4000
dram_io_freq 2400
page_size 4096
block_size 64
max_read_per_cycle 20
max_fill_per_cycle 20
dram_channels 1
dram_ranks 1
dram_banks 8
dram_rows 65536
dram_columns 128
dram_row_size 8
dram_size 4096
dram_pages 1048576

fetch_width 20
decode_width 20
exec_width 20
lq_width 20
sq_width 20
retire_width 20
scheduler_size 128
branch_mispredict_penalty 20
rob_size 256
lq_size 72
sq_size 56
num_instr_destinations_sparc 4
num_instr_destinations 2
num_instr_sources 4

itlb_set 16
itlb_way 8
itlb_rq_size 16
itlb_wq_size 16
itlb_pq_size 0
itlb_mshr_size 8
itlb_latency 1

dtlb_set 16
dtlb_way 4
dtlb_rq_size 16
dtlb_wq_size 16
dtlb_pq_size 0
dtlb_mshr_size 8
dtlb_latency 1

stlb_set 128
stlb_way 12
stlb_rq_size 32
stlb_wq_size 32
stlb_pq_size 0
stlb_mshr_size 16
stlb_latency 8

l1i_size 32
l1i_set 64
l1i_way 8
l1i_rq_size 64
l1i_wq_size 64
l1i_pq_size 8
l1i_mshr_size 8
l1i_latency 1

l1d_size 32
l1d_set 64
l1d_way 8
l1d_rq_size 64
l1d_wq_size 64
l1d_pq_size 32
l1d_mshr_size 16
l1d_latency 4

l2c_size 256
l2c_set 512
l2c_way 8
l2c_rq_size 32
l2c_wq_size 32
l2c_pq_size 16
l2c_mshr_size 32
l2c_latency 10

llc_size 2048
llc_set 2048
llc_way 16
llc_rq_size 32
llc_wq_size 32
llc_pq_size 32
llc_mshr_size 64
llc_latency 20

dram_channel_width 8
dram_wq_size 64
dram_rq_size 64
tRP 15
tRCD 15
tCAS 12.5
dram_dbus_turn_around_time 30
dram_write_high_wm 56
dram_write_low_wm 48
min_dram_writes_per_switch 16
dram_mtps 2400
dram_dbus_return_time 13


Heartbeat CPU  0 instructions:    1000000 cycles:     261135 heartbeat IPC: 3.82944 cumulative IPC: 3.82944 (Simulation time: 0 hr 0 min 3 sec) 
Heartbeat CPU  0 instructions:    2000003 cycles:     521863 heartbeat IPC: 3.83543 cumulative IPC: 3.83243 (Simulation time: 0 hr 0 min 6 sec) 
Heartbeat CPU  0 instructions:    3000019 cycles:     782648 heartbeat IPC: 3.83464 cumulative IPC: 3.83317 (Simulation time: 0 hr 0 min 9 sec) 
Heartbeat CPU  0 instructions:    4000000 cycles:    1109708 heartbeat IPC: 3.05748 cumulative IPC: 3.60455 (Simulation time: 0 hr 0 min 13 sec) 
Heartbeat CPU  0 instructions:    5000005 cycles:    1466385 heartbeat IPC: 2.80367 cumulative IPC: 3.40975 (Simulation time: 0 hr 0 min 16 sec) 
Heartbeat CPU  0 instructions:    6000000 cycles:    1727479 heartbeat IPC: 3.83002 cumulative IPC: 3.47327 (Simulation time: 0 hr 0 min 19 sec) 
Heartbeat CPU  0 instructions:    7000006 cycles:    1988052 heartbeat IPC: 3.83772 cumulative IPC: 3.52104 (Simulation time: 0 hr 0 min 23 sec) 
Heartbeat CPU  0 instructions:    8000000 cycles:    2248725 heartbeat IPC: 3.83620 cumulative IPC: 3.55757 (Simulation time: 0 hr 0 min 27 sec) 
Heartbeat CPU  0 instructions:    9000015 cycles:    2509541 heartbeat IPC: 3.83418 cumulative IPC: 3.58632 (Simulation time: 0 hr 0 min 30 sec) 
Heartbeat CPU  0 instructions:   10000017 cycles:    2770193 heartbeat IPC: 3.83654 cumulative IPC: 3.60986 (Simulation time: 0 hr 0 min 33 sec) 

Warmup complete CPU  0 instructions:   10000017 cycles:    2770193 (Simulation time: 0 hr 0 min 33 sec) 

Heartbeat CPU  0 instructions:   11000002 cycles:    4576546 heartbeat IPC: 0.55359 cumulative IPC: 0.55359 (Simulation time: 0 hr 0 min 49 sec) 
Heartbeat CPU  0 instructions:   12000000 cycles:    6082061 heartbeat IPC: 0.66422 cumulative IPC: 0.60388 (Simulation time: 0 hr 1 min 6 sec) 
Heartbeat CPU  0 instructions:   13000017 cycles:    6849871 heartbeat IPC: 1.30243 cumulative IPC: 0.73535 (Simulation time: 0 hr 1 min 15 sec) 
Heartbeat CPU  0 instructions:   14000009 cycles:    7619778 heartbeat IPC: 1.29885 cumulative IPC: 0.82481 (Simulation time: 0 hr 1 min 24 sec) 
Heartbeat CPU  0 instructions:   15000005 cycles:    8408472 heartbeat IPC: 1.26791 cumulative IPC: 0.88679 (Simulation time: 0 hr 1 min 33 sec) 
Heartbeat CPU  0 instructions:   16000000 cycles:    9205295 heartbeat IPC: 1.25498 cumulative IPC: 0.93238 (Simulation time: 0 hr 1 min 43 sec) 
Heartbeat CPU  0 instructions:   17000015 cycles:   10020056 heartbeat IPC: 1.22737 cumulative IPC: 0.96554 (Simulation time: 0 hr 1 min 53 sec) 
Heartbeat CPU  0 instructions:   18000005 cycles:   12005704 heartbeat IPC: 0.50361 cumulative IPC: 0.86622 (Simulation time: 0 hr 2 min 8 sec) 
Heartbeat CPU  0 instructions:   19000005 cycles:   13387356 heartbeat IPC: 0.72377 cumulative IPC: 0.84768 (Simulation time: 0 hr 2 min 26 sec) 
Heartbeat CPU  0 instructions:   20000000 cycles:   14158223 heartbeat IPC: 1.29723 cumulative IPC: 0.87811 (Simulation time: 0 hr 2 min 36 sec) 
Heartbeat CPU  0 instructions:   21000004 cycles:   14930889 heartbeat IPC: 1.29423 cumulative IPC: 0.90455 (Simulation time: 0 hr 2 min 46 sec) 
Heartbeat CPU  0 instructions:   22000005 cycles:   15716561 heartbeat IPC: 1.27280 cumulative IPC: 0.92690 (Simulation time: 0 hr 2 min 57 sec) 
Heartbeat CPU  0 instructions:   23000005 cycles:   16508914 heartbeat IPC: 1.26206 cumulative IPC: 0.94623 (Simulation time: 0 hr 3 min 9 sec) 
Heartbeat CPU  0 instructions:   24000000 cycles:   17361181 heartbeat IPC: 1.17334 cumulative IPC: 0.95950 (Simulation time: 0 hr 3 min 22 sec) 
Heartbeat CPU  0 instructions:   25000004 cycles:   19478103 heartbeat IPC: 0.47239 cumulative IPC: 0.89778 (Simulation time: 0 hr 3 min 42 sec) 
Heartbeat CPU  0 instructions:   26000012 cycles:   20609799 heartbeat IPC: 0.88364 cumulative IPC: 0.89688 (Simulation time: 0 hr 4 min 5 sec) 
Heartbeat CPU  0 instructions:   27000001 cycles:   21386078 heartbeat IPC: 1.28818 cumulative IPC: 0.91320 (Simulation time: 0 hr 4 min 17 sec) 
Heartbeat CPU  0 instructions:   28000000 cycles:   22158243 heartbeat IPC: 1.29506 cumulative IPC: 0.92841 (Simulation time: 0 hr 4 min 29 sec) 
Heartbeat CPU  0 instructions:   29000011 cycles:   22949291 heartbeat IPC: 1.26416 cumulative IPC: 0.94157 (Simulation time: 0 hr 4 min 41 sec) 
Heartbeat CPU  0 instructions:   30000007 cycles:   23729253 heartbeat IPC: 1.28211 cumulative IPC: 0.95424 (Simulation time: 0 hr 4 min 53 sec) 
Heartbeat CPU  0 instructions:   31000018 cycles:   24764675 heartbeat IPC: 0.96580 cumulative IPC: 0.95478 (Simulation time: 0 hr 5 min 6 sec) 
Heartbeat CPU  0 instructions:   32000000 cycles:   26869271 heartbeat IPC: 0.47514 cumulative IPC: 0.91290 (Simulation time: 0 hr 5 min 28 sec) 
Heartbeat CPU  0 instructions:   33000017 cycles:   27890125 heartbeat IPC: 0.97959 cumulative IPC: 0.91561 (Simulation time: 0 hr 5 min 50 sec) 
Heartbeat CPU  0 instructions:   34000019 cycles:   28666708 heartbeat IPC: 1.28769 cumulative IPC: 0.92677 (Simulation time: 0 hr 6 min 2 sec) 
Heartbeat CPU  0 instructions:   35000015 cycles:   29441659 heartbeat IPC: 1.29040 cumulative IPC: 0.93733 (Simulation time: 0 hr 6 min 14 sec) 
Heartbeat CPU  0 instructions:   36000000 cycles:   30239544 heartbeat IPC: 1.25329 cumulative IPC: 0.94651 (Simulation time: 0 hr 6 min 26 sec) 
Heartbeat CPU  0 instructions:   37000007 cycles:   31030273 heartbeat IPC: 1.26466 cumulative IPC: 0.95541 (Simulation time: 0 hr 6 min 38 sec) 
Heartbeat CPU  0 instructions:   38000016 cycles:   32271878 heartbeat IPC: 0.80542 cumulative IPC: 0.94910 (Simulation time: 0 hr 6 min 53 sec) 
Heartbeat CPU  0 instructions:   39000001 cycles:   34248098 heartbeat IPC: 0.50601 cumulative IPC: 0.92128 (Simulation time: 0 hr 7 min 15 sec) 
Heartbeat CPU  0 instructions:   40000000 cycles:   35149363 heartbeat IPC: 1.10955 cumulative IPC: 0.92652 (Simulation time: 0 hr 7 min 36 sec) 
Heartbeat CPU  0 instructions:   41000004 cycles:   35921682 heartbeat IPC: 1.29481 cumulative IPC: 0.93510 (Simulation time: 0 hr 7 min 48 sec) 
Heartbeat CPU  0 instructions:   42000000 cycles:   36695227 heartbeat IPC: 1.29274 cumulative IPC: 0.94326 (Simulation time: 0 hr 8 min 0 sec) 
Heartbeat CPU  0 instructions:   43000002 cycles:   37491789 heartbeat IPC: 1.25540 cumulative IPC: 0.95042 (Simulation time: 0 hr 8 min 12 sec) 
Heartbeat CPU  0 instructions:   44000000 cycles:   38285150 heartbeat IPC: 1.26046 cumulative IPC: 0.95734 (Simulation time: 0 hr 8 min 26 sec) 
Heartbeat CPU  0 instructions:   45000019 cycles:   39764559 heartbeat IPC: 0.67596 cumulative IPC: 0.94609 (Simulation time: 0 hr 8 min 43 sec) 
Heartbeat CPU  0 instructions:   46000001 cycles:   41592844 heartbeat IPC: 0.54695 cumulative IPC: 0.92729 (Simulation time: 0 hr 9 min 13 sec) 
Heartbeat CPU  0 instructions:   47000001 cycles:   42405413 heartbeat IPC: 1.23066 cumulative IPC: 0.93351 (Simulation time: 0 hr 9 min 31 sec) 
Heartbeat CPU  0 instructions:   48000000 cycles:   43185791 heartbeat IPC: 1.28143 cumulative IPC: 0.94023 (Simulation time: 0 hr 9 min 46 sec) 
Heartbeat CPU  0 instructions:   49000011 cycles:   43961705 heartbeat IPC: 1.28882 cumulative IPC: 0.94680 (Simulation time: 0 hr 10 min 1 sec) 
Heartbeat CPU  0 instructions:   50000002 cycles:   44762967 heartbeat IPC: 1.24802 cumulative IPC: 0.95254 (Simulation time: 0 hr 10 min 16 sec) 
Heartbeat CPU  0 instructions:   51000000 cycles:   45563334 heartbeat IPC: 1.24942 cumulative IPC: 0.95810 (Simulation time: 0 hr 10 min 31 sec) 
Heartbeat CPU  0 instructions:   52000000 cycles:   47236679 heartbeat IPC: 0.59761 cumulative IPC: 0.94453 (Simulation time: 0 hr 10 min 54 sec) 
Heartbeat CPU  0 instructions:   53000000 cycles:   48929275 heartbeat IPC: 0.59081 cumulative IPC: 0.93156 (Simulation time: 0 hr 11 min 28 sec) 
Heartbeat CPU  0 instructions:   54000016 cycles:   49696300 heartbeat IPC: 1.30376 cumulative IPC: 0.93764 (Simulation time: 0 hr 11 min 42 sec) 
Heartbeat CPU  0 instructions:   55000001 cycles:   50467275 heartbeat IPC: 1.29704 cumulative IPC: 0.94345 (Simulation time: 0 hr 11 min 56 sec) 
Heartbeat CPU  0 instructions:   56000000 cycles:   51255061 heartbeat IPC: 1.26938 cumulative IPC: 0.94875 (Simulation time: 0 hr 12 min 10 sec) 
Heartbeat CPU  0 instructions:   57000004 cycles:   52057558 heartbeat IPC: 1.24612 cumulative IPC: 0.95359 (Simulation time: 0 hr 12 min 25 sec) 
Heartbeat CPU  0 instructions:   58000002 cycles:   52873074 heartbeat IPC: 1.22622 cumulative IPC: 0.95803 (Simulation time: 0 hr 12 min 40 sec) 
Heartbeat CPU  0 instructions:   59000004 cycles:   54730411 heartbeat IPC: 0.53841 cumulative IPC: 0.94303 (Simulation time: 0 hr 13 min 2 sec) 
Heartbeat CPU  0 instructions:   60000000 cycles:   56198158 heartbeat IPC: 0.68131 cumulative IPC: 0.93584 (Simulation time: 0 hr 13 min 31 sec) 
Finished CPU 0 instructions: 50000013 cycles: 53428023 cumulative IPC: 0.93584 (Simulation time: 0 hr 13 min 31 sec) 

ChampSim completed all CPUs

[ROI Statistics]
Core_0_instructions 50000013
Core_0_cycles 53428023
Core_0_IPC 0.93584

Core_0_branch_prediction_accuracy 99.79587
Core_0_branch_MPKI 0.02648
Core_0_average_ROB_occupancy_at_mispredict 238.97659

Core_0_L1D_total_access 14096022
Core_0_L1D_total_hit 13475647
Core_0_L1D_total_miss 620375
Core_0_L1D_total_overlap_miss 610026
Core_0_L1D_loads 9967188
Core_0_L1D_load_hit 9597019
Core_0_L1D_load_miss 370169
Core_0_L1D_RFOs 4128834
Core_0_L1D_RFO_hit 3878628
Core_0_L1D_RFO_miss 250206
Core_0_L1D_prefetches 0
Core_0_L1D_prefetch_hit 0
Core_0_L1D_prefetch_miss 0
Core_0_L1D_writebacks 0
Core_0_L1D_writeback_hit 0
Core_0_L1D_writeback_miss 0
Core_0_L1D_miss_rate 0.04401
Core_0_L1D_MPKI 12.40750
Core_0_L1D_demand_miss 620375
Core_0_L1D_prefetch_requested 0
Core_0_L1D_prefetch_issued 0
Core_0_L1D_prefetch_useful 0
Core_0_L1D_prefetch_useless 0
Core_0_L1D_prefetch_late 0
Core_0_L1D_average_miss_latency 164.95815
Core_0_L1D_active_cycles 50304305
Core_0_L1D_active_hit_cycles 26008999
Core_0_L1D_active_miss_cycles 44814369
Core_0_L1D_active_pure_miss_cycles 24295306
Core_0_L1D_active_hit_miss_overlap_cycles 20519063
Core_0_L1D_total_pure_miss 582076
Core_0_L1D_pure_miss_rate 0.04129
Core_0_L1D_active_cycles_per_core 50304305
Core_0_L1D_active_hit_cycles_per_core 26008999
Core_0_L1D_active_miss_cycles_per_core 44814369
Core_0_L1D_active_pure_miss_cycles_per_core 24295306
Core_0_L1D_hit_miss_overlap_cycles_per_core 20519063
Core_0_L1D_camat_per_core 3.56869

Pure^3_miss 0
Core_0_L1I_total_access 9622520
Core_0_L1I_total_hit 9622520
Core_0_L1I_total_miss 0
Core_0_L1I_total_overlap_miss 0
Core_0_L1I_loads 9622520
Core_0_L1I_load_hit 9622520
Core_0_L1I_load_miss 0
Core_0_L1I_RFOs 0
Core_0_L1I_RFO_hit 0
Core_0_L1I_RFO_miss 0
Core_0_L1I_prefetches 0
Core_0_L1I_prefetch_hit 0
Core_0_L1I_prefetch_miss 0
Core_0_L1I_writebacks 0
Core_0_L1I_writeback_hit 0
Core_0_L1I_writeback_miss 0
Core_0_L1I_miss_rate 0.00000
Core_0_L1I_MPKI 0.00000
Core_0_L1I_demand_miss 0
Core_0_L1I_prefetch_requested 0
Core_0_L1I_prefetch_issued 0
Core_0_L1I_prefetch_useful 0
Core_0_L1I_prefetch_useless 0
Core_0_L1I_prefetch_late 0
Core_0_L1I_average_miss_latency -nan
Core_0_L1I_active_cycles 12856968
Core_0_L1I_active_hit_cycles 12856968
Core_0_L1I_active_miss_cycles 0
Core_0_L1I_active_pure_miss_cycles 0
Core_0_L1I_active_hit_miss_overlap_cycles 0
Core_0_L1I_total_pure_miss 0
Core_0_L1I_pure_miss_rate 0.00000
Core_0_L1I_active_cycles_per_core 12856968
Core_0_L1I_active_hit_cycles_per_core 12856968
Core_0_L1I_active_miss_cycles_per_core 0
Core_0_L1I_active_pure_miss_cycles_per_core 0
Core_0_L1I_hit_miss_overlap_cycles_per_core 0
Core_0_L1I_camat_per_core 1.33613

Pure^3_miss 0
Core_0_L2C_total_access 871488
Core_0_L2C_total_hit 355631
Core_0_L2C_total_miss 515857
Core_0_L2C_total_overlap_miss 307500
Core_0_L2C_loads 370169
Core_0_L2C_load_hit 105272
Core_0_L2C_load_miss 264897
Core_0_L2C_RFOs 250206
Core_0_L2C_RFO_hit 95
Core_0_L2C_RFO_miss 250111
Core_0_L2C_prefetches 0
Core_0_L2C_prefetch_hit 0
Core_0_L2C_prefetch_miss 0
Core_0_L2C_writebacks 251113
Core_0_L2C_writeback_hit 250264
Core_0_L2C_writeback_miss 849
Core_0_L2C_miss_rate 0.59193
Core_0_L2C_MPKI 10.31714
Core_0_L2C_demand_miss 515857
Core_0_L2C_prefetch_requested 0
Core_0_L2C_prefetch_issued 0
Core_0_L2C_prefetch_useful 0
Core_0_L2C_prefetch_useless 0
Core_0_L2C_prefetch_late 0
Core_0_L2C_average_miss_latency 180.90985
Core_0_L2C_active_cycles 43441888
Core_0_L2C_active_hit_cycles 3876389
Core_0_L2C_active_miss_cycles 42361868
Core_0_L2C_active_pure_miss_cycles 39565499
Core_0_L2C_active_hit_miss_overlap_cycles 2796369
Core_0_L2C_total_pure_miss 514935
Core_0_L2C_pure_miss_rate 0.59087
Core_0_L2C_active_cycles_per_core 43441888
Core_0_L2C_active_hit_cycles_per_core 3876389
Core_0_L2C_active_miss_cycles_per_core 42361868
Core_0_L2C_active_pure_miss_cycles_per_core 39565499
Core_0_L2C_hit_miss_overlap_cycles_per_core 2796369
Core_0_L2C_camat_per_core 49.84795

Pure^3_miss 0
Core_0_LLC_total_access 765663
Core_0_LLC_total_hit 421026
Core_0_LLC_total_miss 344637
Core_0_LLC_total_overlap_miss 235055
Core_0_LLC_loads 264897
Core_0_LLC_load_hit 115915
Core_0_LLC_load_miss 148982
Core_0_LLC_RFOs 250111
Core_0_LLC_RFO_hit 54493
Core_0_LLC_RFO_miss 195618
Core_0_LLC_prefetches 0
Core_0_LLC_prefetch_hit 0
Core_0_LLC_prefetch_miss 0
Core_0_LLC_writebacks 250655
Core_0_LLC_writeback_hit 250618
Core_0_LLC_writeback_miss 37
Core_0_LLC_miss_rate 0.45012
Core_0_LLC_MPKI 6.89274
Core_0_LLC_demand_miss 344637
Core_0_LLC_prefetch_requested 0
Core_0_LLC_prefetch_issued 0
Core_0_LLC_prefetch_useful 0
Core_0_LLC_prefetch_useless 0
Core_0_LLC_prefetch_late 0
Core_0_LLC_average_miss_latency 224.99168
Core_0_LLC_active_cycles 39936239
Core_0_LLC_active_hit_cycles 7898907
Core_0_LLC_active_miss_cycles 37019223
Core_0_LLC_active_pure_miss_cycles 32037332
Core_0_LLC_active_hit_miss_overlap_cycles 4981891
Core_0_LLC_total_pure_miss 344113
Core_0_LLC_pure_miss_rate 0.44943
Core_0_LLC_active_cycles_per_core 39936239
Core_0_LLC_active_hit_cycles_per_core 7898907
Core_0_LLC_active_miss_cycles_per_core 37019223
Core_0_LLC_active_pure_miss_cycles_per_core 32037332
Core_0_LLC_hit_miss_overlap_cycles_per_core 4981891
Core_0_LLC_camat_per_core 52.15903

Pure^3_miss 344113
Core_0_major_page_fault 0
Core_0_minor_page_fault 6243

Channel_0_RQ_row_buffer_hit 58442
Channel_0_RQ_row_buffer_miss 286083
Channel_0_WQ_row_buffer_hit 136014
Channel_0_WQ_row_buffer_miss 82118
Channel_0_WQ_full 0
Channel_0_dbus_congested 213767

avg_congested_cycle 11
